MODEL 1
REMARK VINA RESULT:     -11.5      0.000      0.000
REMARK  14 active torsions:
REMARK  status: ('A' for Active; 'I' for Inactive)
REMARK    1  A    between atoms: N1_1  and  C31_43 
REMARK    2  A    between atoms: C2_3  and  C3_4 
REMARK       I    between atoms: C3_4  and  N2_6 
REMARK    3  A    between atoms: N2_6  and  C4_8 
REMARK    4  A    between atoms: N3_12  and  C10_15 
REMARK    5  A    between atoms: C10_15  and  C11_16 
REMARK    6  A    between atoms: C11_16  and  O2_17 
REMARK    7  A    between atoms: C11_16  and  C12_19 
REMARK    8  A    between atoms: C12_19  and  C13_20 
REMARK    9  A    between atoms: C13_20  and  C21_28 
REMARK   10  A    between atoms: C13_20  and  C14_21 
REMARK   11  A    between atoms: C14_21  and  C15_22 
REMARK       I    between atoms: C21_28  and  N4_30 
REMARK   12  A    between atoms: N4_30  and  C22_32 
REMARK   13  A    between atoms: C23_33  and  O4_34 
REMARK   14  A    between atoms: C31_43  and  C32_44 
ROOT
HETATM    1  N1  MK1 B 902       9.095  24.118   3.085  1.00 28.25     0.096 N 
HETATM    2  C1  MK1 B 902       9.371  24.263   4.540  1.00 30.30     0.307 C 
HETATM    3  C2  MK1 B 902      10.553  25.068   5.041  1.00 27.27     0.200 C 
HETATM    4  N3  MK1 B 902      11.705  24.364   4.376  1.00 28.91    -0.395 N 
HETATM    5  C8  MK1 B 902      11.558  23.919   2.968  1.00 26.24     0.148 C 
HETATM    6  C9  MK1 B 902      10.186  23.458   2.519  1.00 27.47     0.292 C 
ENDROOT
BRANCH   1   7
HETATM    7  C31 MK1 B 902       7.785  23.581   2.700  1.00 36.25     0.312 C 
BRANCH   7   8
HETATM    8  C32 MK1 B 902       6.495  24.057   3.378  1.00 42.75    -0.015 A 
HETATM    9  C36 MK1 B 902       5.573  23.100   3.744  1.00 44.71     0.011 A 
HETATM   10  C35 MK1 B 902       4.391  23.528   4.342  1.00 49.34     0.018 A 
HETATM   11  C34 MK1 B 902       4.171  24.893   4.552  1.00 50.60     0.087 A 
HETATM   12  N5  MK1 B 902       5.048  25.922   4.214  1.00 51.38    -0.375 N 
HETATM   13  C33 MK1 B 902       6.212  25.410   3.618  1.00 47.41     0.096 A 
HETATM   14  H5  MK1 B 902       4.869  26.913   4.377  1.00  0.00     0.164 HD
ENDBRANCH   7   8
ENDBRANCH   1   7
BRANCH   3  15
HETATM   15  C3  MK1 B 902      10.590  24.970   6.542  1.00 28.85     0.242 C 
HETATM   16  O1  MK1 B 902      10.718  23.882   7.089  1.00 29.59    -0.271 OA
HETATM   17  N2  MK1 B 902      10.466  26.096   7.218  1.00 22.29    -0.351 N 
HETATM   18  H2  MK1 B 902      10.299  26.923   6.645  1.00  0.00     0.163 HD
BRANCH  17  19
HETATM   19  C4  MK1 B 902      10.529  26.343   8.623  1.00 23.47     0.022 C 
HETATM   20  C7  MK1 B 902       9.577  25.544   9.401  1.00 22.75     0.037 C 
HETATM   21  C5  MK1 B 902      10.083  27.800   8.844  1.00 27.66     0.037 C 
HETATM   22  C6  MK1 B 902      11.790  26.137   9.161  1.00 21.71     0.037 C 
ENDBRANCH  17  19
ENDBRANCH   3  15
BRANCH   4  23
HETATM   23  C10 MK1 B 902      13.029  24.926   4.559  1.00 20.86     0.149 C 
BRANCH  23  24
HETATM   24  C11 MK1 B 902      14.061  23.933   5.098  1.00 21.68     0.136 C 
BRANCH  24  25
HETATM   25  O2  MK1 B 902      15.172  24.676   4.695  1.00 15.87    -0.394 OA
HETATM   26  H2  MK1 B 902      14.918  25.590   4.661  1.00  0.00     0.210 HD
ENDBRANCH  24  25
BRANCH  24  27
HETATM   27  C12 MK1 B 902      14.233  23.591   6.589  1.00 21.49     0.047 C 
BRANCH  27  28
HETATM   28  C13 MK1 B 902      15.400  22.710   7.059  1.00 26.89     0.084 C 
BRANCH  28  29
HETATM   29  C21 MK1 B 902      15.375  21.332   6.410  1.00 29.35     0.222 C 
HETATM   30  N4  MK1 B 902      16.543  20.902   5.939  1.00 31.19    -0.350 N 
HETATM   31  H4  MK1 B 902      17.305  21.569   5.813  1.00  0.00     0.163 HD
HETATM   32  O3  MK1 B 902      14.347  20.638   6.440  1.00 32.66    -0.273 OA
BRANCH  30  33
HETATM   33  C22 MK1 B 902      16.759  19.506   5.598  1.00 29.22     0.147 C 
HETATM   34  C30 MK1 B 902      16.583  19.072   4.119  1.00 31.86    -0.027 A 
HETATM   35  C29 MK1 B 902      15.715  19.435   3.139  1.00 27.70     0.010 A 
HETATM   36  C25 MK1 B 902      17.638  18.001   3.721  1.00 31.29    -0.047 A 
HETATM   37  C28 MK1 B 902      15.780  18.882   1.867  1.00 29.01     0.001 A 
HETATM   38  C27 MK1 B 902      16.745  17.927   1.515  1.00 28.00     0.001 A 
HETATM   39  C26 MK1 B 902      17.685  17.479   2.450  1.00 32.00     0.008 A 
HETATM   40  C24 MK1 B 902      18.421  17.868   5.004  1.00 32.05     0.073 C 
HETATM   41  C23 MK1 B 902      18.179  19.059   5.902  1.00 28.82     0.149 C 
BRANCH  41  42
HETATM   42  O4  MK1 B 902      19.087  20.131   5.693  1.00 28.32    -0.393 OA
HETATM   43  H4  MK1 B 902      18.698  20.786   5.126  1.00  0.00     0.210 HD
ENDBRANCH  41  42
ENDBRANCH  30  33
ENDBRANCH  28  29
BRANCH  28  44
HETATM   44  C14 MK1 B 902      15.423  22.540   8.588  1.00 28.67     0.052 C 
BRANCH  44  45
HETATM   45  C15 MK1 B 902      16.571  21.720   9.051  1.00 26.89    -0.057 A 
HETATM   46  C16 MK1 B 902      17.897  22.059   8.776  1.00 29.22     0.007 A 
HETATM   47  C17 MK1 B 902      18.937  21.244   9.197  1.00 29.22     0.001 A 
HETATM   48  C18 MK1 B 902      18.634  20.076   9.899  1.00 30.97     0.000 A 
HETATM   49  C19 MK1 B 902      17.305  19.736  10.184  1.00 29.25     0.001 A 
HETATM   50  C20 MK1 B 902      16.271  20.567   9.755  1.00 29.96     0.007 A 
ENDBRANCH  44  45
ENDBRANCH  28  44
ENDBRANCH  27  28
ENDBRANCH  24  27
ENDBRANCH  23  24
ENDBRANCH   4  23
TORSDOF 14
ENDMDL
MODEL 2
REMARK VINA RESULT:     -10.5      1.513      4.286
REMARK  14 active torsions:
REMARK  status: ('A' for Active; 'I' for Inactive)
REMARK    1  A    between atoms: N1_1  and  C31_43 
REMARK    2  A    between atoms: C2_3  and  C3_4 
REMARK       I    between atoms: C3_4  and  N2_6 
REMARK    3  A    between atoms: N2_6  and  C4_8 
REMARK    4  A    between atoms: N3_12  and  C10_15 
REMARK    5  A    between atoms: C10_15  and  C11_16 
REMARK    6  A    between atoms: C11_16  and  O2_17 
REMARK    7  A    between atoms: C11_16  and  C12_19 
REMARK    8  A    between atoms: C12_19  and  C13_20 
REMARK    9  A    between atoms: C13_20  and  C21_28 
REMARK   10  A    between atoms: C13_20  and  C14_21 
REMARK   11  A    between atoms: C14_21  and  C15_22 
REMARK       I    between atoms: C21_28  and  N4_30 
REMARK   12  A    between atoms: N4_30  and  C22_32 
REMARK   13  A    between atoms: C23_33  and  O4_34 
REMARK   14  A    between atoms: C31_43  and  C32_44 
ROOT
HETATM    1  N1  MK1 B 902       9.296  25.371   2.699  1.00 28.25     0.096 N 
HETATM    2  C1  MK1 B 902       9.361  25.307   4.184  1.00 30.30     0.307 C 
HETATM    3  C2  MK1 B 902      10.602  25.740   4.938  1.00 27.27     0.200 C 
HETATM    4  N3  MK1 B 902      11.650  24.836   4.346  1.00 28.91    -0.395 N 
HETATM    5  C8  MK1 B 902      11.630  24.575   2.885  1.00 26.24     0.148 C 
HETATM    6  C9  MK1 B 902      10.279  24.516   2.202  1.00 27.47     0.292 C 
ENDROOT
BRANCH   1   7
HETATM    7  C31 MK1 B 902       7.975  25.217   2.077  1.00 36.25     0.312 C 
BRANCH   7   8
HETATM    8  C32 MK1 B 902       6.847  24.452   2.778  1.00 42.75    -0.015 A 
HETATM    9  C36 MK1 B 902       5.592  25.023   2.781  1.00 44.71     0.011 A 
HETATM   10  C35 MK1 B 902       4.567  24.343   3.434  1.00 49.34     0.018 A 
HETATM   11  C34 MK1 B 902       4.831  23.121   4.061  1.00 50.60     0.087 A 
HETATM   12  N5  MK1 B 902       6.066  22.476   4.104  1.00 51.38    -0.375 N 
HETATM   13  C33 MK1 B 902       7.042  23.223   3.426  1.00 47.41     0.096 A 
HETATM   14  H5  MK1 B 902       6.237  21.583   4.567  1.00  0.00     0.164 HD
ENDBRANCH   7   8
ENDBRANCH   1   7
BRANCH   3  15
HETATM   15  C3  MK1 B 902      10.375  25.497   6.405  1.00 28.85     0.242 C 
HETATM   16  O1  MK1 B 902      10.270  24.355   6.834  1.00 29.59    -0.271 OA
HETATM   17  N2  MK1 B 902      10.282  26.560   7.180  1.00 22.29    -0.351 N 
HETATM   18  H2  MK1 B 902      10.319  27.453   6.689  1.00  0.00     0.163 HD
BRANCH  17  19
HETATM   19  C4  MK1 B 902      10.139  26.661   8.598  1.00 23.47     0.022 C 
HETATM   20  C7  MK1 B 902       8.990  25.918   9.125  1.00 22.75     0.037 C 
HETATM   21  C5  MK1 B 902       9.824  28.135   8.913  1.00 27.66     0.037 C 
HETATM   22  C6  MK1 B 902      11.264  26.248   9.294  1.00 21.71     0.037 C 
ENDBRANCH  17  19
ENDBRANCH   3  15
BRANCH   4  23
HETATM   23  C10 MK1 B 902      13.021  25.029   4.774  1.00 20.86     0.149 C 
BRANCH  23  24
HETATM   24  C11 MK1 B 902      13.808  23.731   4.957  1.00 21.68     0.136 C 
BRANCH  24  25
HETATM   25  O2  MK1 B 902      14.901  24.333   5.582  1.00 15.87    -0.394 OA
HETATM   26  H2  MK1 B 902      14.680  24.466   6.497  1.00  0.00     0.210 HD
ENDBRANCH  24  25
BRANCH  24  27
HETATM   27  C12 MK1 B 902      13.345  22.555   5.837  1.00 21.49     0.047 C 
BRANCH  27  28
HETATM   28  C13 MK1 B 902      14.317  21.426   6.208  1.00 26.89     0.084 C 
BRANCH  28  29
HETATM   29  C21 MK1 B 902      14.967  21.653   7.567  1.00 29.35     0.222 C 
HETATM   30  N4  MK1 B 902      15.821  20.710   7.955  1.00 31.19    -0.350 N 
HETATM   31  H4  MK1 B 902      15.820  19.809   7.477  1.00  0.00     0.163 HD
HETATM   32  O3  MK1 B 902      14.779  22.710   8.188  1.00 32.66    -0.273 OA
BRANCH  30  33
HETATM   33  C22 MK1 B 902      16.756  20.931   9.046  1.00 29.22     0.147 C 
HETATM   34  C30 MK1 B 902      17.160  19.721   9.928  1.00 31.86    -0.027 A 
HETATM   35  C29 MK1 B 902      16.481  18.643  10.399  1.00 27.70     0.010 A 
HETATM   36  C25 MK1 B 902      18.661  19.799  10.331  1.00 31.29    -0.047 A 
HETATM   37  C28 MK1 B 902      17.098  17.678  11.184  1.00 29.01     0.001 A 
HETATM   38  C27 MK1 B 902      18.455  17.752  11.529  1.00 28.00     0.001 A 
HETATM   39  C26 MK1 B 902      19.248  18.823  11.101  1.00 32.00     0.008 A 
HETATM   40  C24 MK1 B 902      19.087  21.067   9.632  1.00 32.05     0.073 C 
HETATM   41  C23 MK1 B 902      18.100  21.437   8.550  1.00 28.82     0.149 C 
BRANCH  41  42
HETATM   42  O4  MK1 B 902      18.399  20.874   7.281  1.00 28.32    -0.393 OA
HETATM   43  H4  MK1 B 902      18.859  20.049   7.387  1.00  0.00     0.210 HD
ENDBRANCH  41  42
ENDBRANCH  30  33
ENDBRANCH  28  29
BRANCH  28  44
HETATM   44  C14 MK1 B 902      15.422  21.238   5.153  1.00 28.67     0.052 C 
BRANCH  44  45
HETATM   45  C15 MK1 B 902      15.239  20.000   4.355  1.00 26.89    -0.057 A 
HETATM   46  C16 MK1 B 902      15.106  20.014   2.965  1.00 29.22     0.007 A 
HETATM   47  C17 MK1 B 902      14.901  18.836   2.262  1.00 29.22     0.001 A 
HETATM   48  C18 MK1 B 902      14.827  17.635   2.971  1.00 30.97     0.000 A 
HETATM   49  C19 MK1 B 902      14.967  17.615   4.364  1.00 29.25     0.001 A 
HETATM   50  C20 MK1 B 902      15.174  18.808   5.056  1.00 29.96     0.007 A 
ENDBRANCH  44  45
ENDBRANCH  28  44
ENDBRANCH  27  28
ENDBRANCH  24  27
ENDBRANCH  23  24
ENDBRANCH   4  23
TORSDOF 14
ENDMDL
MODEL 3
REMARK VINA RESULT:     -10.4      2.043     10.993
REMARK  14 active torsions:
REMARK  status: ('A' for Active; 'I' for Inactive)
REMARK    1  A    between atoms: N1_1  and  C31_43 
REMARK    2  A    between atoms: C2_3  and  C3_4 
REMARK       I    between atoms: C3_4  and  N2_6 
REMARK    3  A    between atoms: N2_6  and  C4_8 
REMARK    4  A    between atoms: N3_12  and  C10_15 
REMARK    5  A    between atoms: C10_15  and  C11_16 
REMARK    6  A    between atoms: C11_16  and  O2_17 
REMARK    7  A    between atoms: C11_16  and  C12_19 
REMARK    8  A    between atoms: C12_19  and  C13_20 
REMARK    9  A    between atoms: C13_20  and  C21_28 
REMARK   10  A    between atoms: C13_20  and  C14_21 
REMARK   11  A    between atoms: C14_21  and  C15_22 
REMARK       I    between atoms: C21_28  and  N4_30 
REMARK   12  A    between atoms: N4_30  and  C22_32 
REMARK   13  A    between atoms: C23_33  and  O4_34 
REMARK   14  A    between atoms: C31_43  and  C32_44 
ROOT
HETATM    1  N1  MK1 B 902      16.405  21.136   9.030  1.00 28.25     0.096 N 
HETATM    2  C1  MK1 B 902      15.902  20.473   7.797  1.00 30.30     0.307 C 
HETATM    3  C2  MK1 B 902      16.060  21.119   6.435  1.00 27.27     0.200 C 
HETATM    4  N3  MK1 B 902      15.343  22.427   6.633  1.00 28.91    -0.395 N 
HETATM    5  C8  MK1 B 902      15.526  23.160   7.911  1.00 26.24     0.148 C 
HETATM    6  C9  MK1 B 902      15.708  22.336   9.170  1.00 27.47     0.292 C 
ENDROOT
BRANCH   1   7
HETATM    7  C31 MK1 B 902      16.476  20.322  10.250  1.00 36.25     0.312 C 
BRANCH   7   8
HETATM    8  C32 MK1 B 902      17.139  18.939  10.249  1.00 42.75    -0.015 A 
HETATM    9  C36 MK1 B 902      16.530  17.938  10.974  1.00 44.71     0.011 A 
HETATM   10  C35 MK1 B 902      17.137  16.685  10.993  1.00 49.34     0.018 A 
HETATM   11  C34 MK1 B 902      18.329  16.478  10.292  1.00 50.60     0.087 A 
HETATM   12  N5  MK1 B 902      19.008  17.433   9.538  1.00 51.38    -0.375 N 
HETATM   13  C33 MK1 B 902      18.334  18.664   9.568  1.00 47.41     0.096 A 
HETATM   14  H5  MK1 B 902      19.878  17.261   9.032  1.00  0.00     0.164 HD
ENDBRANCH   7   8
ENDBRANCH   1   7
BRANCH   3  15
HETATM   15  C3  MK1 B 902      15.400  20.234   5.412  1.00 28.85     0.242 C 
HETATM   16  O1  MK1 B 902      14.207  19.972   5.499  1.00 29.59    -0.271 OA
HETATM   17  N2  MK1 B 902      16.166  19.759   4.449  1.00 22.29    -0.351 N 
HETATM   18  H2  MK1 B 902      17.154  19.998   4.530  1.00  0.00     0.163 HD
BRANCH  17  19
HETATM   19  C4  MK1 B 902      15.833  18.963   3.311  1.00 23.47     0.022 C 
HETATM   20  C7  MK1 B 902      15.171  17.700   3.653  1.00 22.75     0.037 C 
HETATM   21  C5  MK1 B 902      17.160  18.540   2.656  1.00 27.66     0.037 C 
HETATM   22  C6  MK1 B 902      15.032  19.625   2.394  1.00 21.71     0.037 C 
ENDBRANCH  17  19
ENDBRANCH   3  15
BRANCH   4  23
HETATM   23  C10 MK1 B 902      15.365  23.375   5.537  1.00 20.86     0.149 C 
BRANCH  23  24
HETATM   24  C11 MK1 B 902      13.993  23.951   5.181  1.00 21.68     0.136 C 
BRANCH  24  25
HETATM   25  O2  MK1 B 902      14.492  25.132   4.628  1.00 15.87    -0.394 OA
HETATM   26  H2  MK1 B 902      14.895  24.919   3.794  1.00  0.00     0.210 HD
ENDBRANCH  24  25
BRANCH  24  27
HETATM   27  C12 MK1 B 902      13.028  23.319   4.161  1.00 21.49     0.047 C 
BRANCH  27  28
HETATM   28  C13 MK1 B 902      11.793  24.090   3.672  1.00 26.89     0.084 C 
BRANCH  28  29
HETATM   29  C21 MK1 B 902      10.838  24.423   4.812  1.00 29.35     0.222 C 
HETATM   30  N4  MK1 B 902      10.375  25.670   4.821  1.00 31.19    -0.350 N 
HETATM   31  H4  MK1 B 902      10.838  26.378   4.251  1.00  0.00     0.163 HD
HETATM   32  O3  MK1 B 902      10.450  23.538   5.590  1.00 32.66    -0.273 OA
BRANCH  30  33
HETATM   33  C22 MK1 B 902       9.224  26.049   5.623  1.00 29.22     0.147 C 
HETATM   34  C30 MK1 B 902       9.471  26.618   7.045  1.00 31.86    -0.027 A 
HETATM   35  C29 MK1 B 902      10.370  26.326   8.022  1.00 27.70     0.010 A 
HETATM   36  C25 MK1 B 902       8.461  27.753   7.377  1.00 31.29    -0.047 A 
HETATM   37  C28 MK1 B 902      10.379  27.008   9.232  1.00 29.01     0.001 A 
HETATM   38  C27 MK1 B 902       9.471  28.039   9.514  1.00 28.00     0.001 A 
HETATM   39  C26 MK1 B 902       8.500  28.418   8.580  1.00 32.00     0.008 A 
HETATM   40  C24 MK1 B 902       7.662  27.819   6.099  1.00 32.05     0.073 C 
HETATM   41  C23 MK1 B 902       8.411  27.153   4.968  1.00 28.82     0.149 C 
BRANCH  41  42
HETATM   42  O4  MK1 B 902       9.264  28.029   4.246  1.00 28.32    -0.393 OA
HETATM   43  H4  MK1 B 902       8.764  28.754   3.888  1.00  0.00     0.210 HD
ENDBRANCH  41  42
ENDBRANCH  30  33
ENDBRANCH  28  29
BRANCH  28  44
HETATM   44  C14 MK1 B 902      11.022  23.323   2.584  1.00 28.67     0.052 C 
BRANCH  44  45
HETATM   45  C15 MK1 B 902       9.709  23.944   2.275  1.00 26.89    -0.057 A 
HETATM   46  C16 MK1 B 902       9.589  25.240   1.771  1.00 29.22     0.007 A 
HETATM   47  C17 MK1 B 902       8.340  25.793   1.531  1.00 29.22     0.001 A 
HETATM   48  C18 MK1 B 902       7.203  25.029   1.806  1.00 30.97     0.000 A 
HETATM   49  C19 MK1 B 902       7.318  23.726   2.304  1.00 29.25     0.001 A 
HETATM   50  C20 MK1 B 902       8.582  23.184   2.539  1.00 29.96     0.007 A 
ENDBRANCH  44  45
ENDBRANCH  28  44
ENDBRANCH  27  28
ENDBRANCH  24  27
ENDBRANCH  23  24
ENDBRANCH   4  23
TORSDOF 14
ENDMDL
MODEL 4
REMARK VINA RESULT:     -10.2      1.928     10.407
REMARK  14 active torsions:
REMARK  status: ('A' for Active; 'I' for Inactive)
REMARK    1  A    between atoms: N1_1  and  C31_43 
REMARK    2  A    between atoms: C2_3  and  C3_4 
REMARK       I    between atoms: C3_4  and  N2_6 
REMARK    3  A    between atoms: N2_6  and  C4_8 
REMARK    4  A    between atoms: N3_12  and  C10_15 
REMARK    5  A    between atoms: C10_15  and  C11_16 
REMARK    6  A    between atoms: C11_16  and  O2_17 
REMARK    7  A    between atoms: C11_16  and  C12_19 
REMARK    8  A    between atoms: C12_19  and  C13_20 
REMARK    9  A    between atoms: C13_20  and  C21_28 
REMARK   10  A    between atoms: C13_20  and  C14_21 
REMARK   11  A    between atoms: C14_21  and  C15_22 
REMARK       I    between atoms: C21_28  and  N4_30 
REMARK   12  A    between atoms: N4_30  and  C22_32 
REMARK   13  A    between atoms: C23_33  and  O4_34 
REMARK   14  A    between atoms: C31_43  and  C32_44 
ROOT
HETATM    1  N1  MK1 B 902      16.058  21.569   8.894  1.00 28.25     0.096 N 
HETATM    2  C1  MK1 B 902      15.707  20.739   7.711  1.00 30.30     0.307 C 
HETATM    3  C2  MK1 B 902      15.839  21.280   6.301  1.00 27.27     0.200 C 
HETATM    4  N3  MK1 B 902      14.945  22.489   6.353  1.00 28.91    -0.395 N 
HETATM    5  C8  MK1 B 902      14.968  23.347   7.564  1.00 26.24     0.148 C 
HETATM    6  C9  MK1 B 902      15.200  22.669   8.899  1.00 27.47     0.292 C 
ENDROOT
BRANCH   1   7
HETATM    7  C31 MK1 B 902      16.182  20.881  10.185  1.00 36.25     0.312 C 
BRANCH   7   8
HETATM    8  C32 MK1 B 902      16.987  19.583  10.323  1.00 42.75    -0.015 A 
HETATM    9  C36 MK1 B 902      18.351  19.654  10.142  1.00 44.71     0.011 A 
HETATM   10  C35 MK1 B 902      19.085  18.475  10.247  1.00 49.34     0.018 A 
HETATM   11  C34 MK1 B 902      18.433  17.271  10.526  1.00 50.60     0.087 A 
HETATM   12  N5  MK1 B 902      17.062  17.112  10.723  1.00 51.38    -0.375 N 
HETATM   13  C33 MK1 B 902      16.395  18.342  10.601  1.00 47.41     0.096 A 
HETATM   14  H5  MK1 B 902      16.605  16.223  10.926  1.00  0.00     0.164 HD
ENDBRANCH   7   8
ENDBRANCH   1   7
BRANCH   3  15
HETATM   15  C3  MK1 B 902      15.353  20.228   5.342  1.00 28.85     0.242 C 
HETATM   16  O1  MK1 B 902      14.220  19.775   5.442  1.00 29.59    -0.271 OA
HETATM   17  N2  MK1 B 902      16.202  19.821   4.418  1.00 22.29    -0.351 N 
HETATM   18  H2  MK1 B 902      17.136  20.228   4.486  1.00  0.00     0.163 HD
BRANCH  17  19
HETATM   19  C4  MK1 B 902      16.026  18.903   3.339  1.00 23.47     0.022 C 
HETATM   20  C7  MK1 B 902      15.519  17.593   3.761  1.00 22.75     0.037 C 
HETATM   21  C5  MK1 B 902      17.424  18.610   2.765  1.00 27.66     0.037 C 
HETATM   22  C6  MK1 B 902      15.186  19.380   2.345  1.00 21.71     0.037 C 
ENDBRANCH  17  19
ENDBRANCH   3  15
BRANCH   4  23
HETATM   23  C10 MK1 B 902      14.889  23.333   5.176  1.00 20.86     0.149 C 
BRANCH  23  24
HETATM   24  C11 MK1 B 902      13.696  24.290   5.148  1.00 21.68     0.136 C 
BRANCH  24  25
HETATM   25  O2  MK1 B 902      14.383  25.328   4.516  1.00 15.87    -0.394 OA
HETATM   26  H2  MK1 B 902      14.396  25.147   3.584  1.00  0.00     0.210 HD
ENDBRANCH  24  25
BRANCH  24  27
HETATM   27  C12 MK1 B 902      12.398  24.031   4.363  1.00 21.49     0.047 C 
BRANCH  27  28
HETATM   28  C13 MK1 B 902      11.040  24.022   5.079  1.00 26.89     0.084 C 
BRANCH  28  29
HETATM   29  C21 MK1 B 902       9.925  23.486   4.188  1.00 29.35     0.222 C 
HETATM   30  N4  MK1 B 902       9.035  24.389   3.785  1.00 31.19    -0.350 N 
HETATM   31  H4  MK1 B 902       8.992  25.292   4.257  1.00  0.00     0.163 HD
HETATM   32  O3  MK1 B 902       9.944  22.312   3.791  1.00 32.66    -0.273 OA
BRANCH  30  33
HETATM   33  C22 MK1 B 902       8.122  24.119   2.687  1.00 29.22     0.147 C 
HETATM   34  C30 MK1 B 902       6.675  23.673   3.024  1.00 31.86    -0.027 A 
HETATM   35  C29 MK1 B 902       6.147  22.873   3.988  1.00 27.70     0.010 A 
HETATM   36  C25 MK1 B 902       5.652  24.292   2.029  1.00 31.29    -0.047 A 
HETATM   37  C28 MK1 B 902       4.782  22.636   4.072  1.00 29.01     0.001 A 
HETATM   38  C27 MK1 B 902       3.867  23.211   3.177  1.00 28.00     0.001 A 
HETATM   39  C26 MK1 B 902       4.304  24.048   2.143  1.00 32.00     0.008 A 
HETATM   40  C24 MK1 B 902       6.560  25.113   1.147  1.00 32.05     0.073 C 
HETATM   41  C23 MK1 B 902       7.891  25.348   1.824  1.00 28.82     0.149 C 
BRANCH  41  42
HETATM   42  O4  MK1 B 902       7.932  26.523   2.620  1.00 28.32    -0.393 OA
HETATM   43  H4  MK1 B 902       8.384  27.219   2.156  1.00  0.00     0.210 HD
ENDBRANCH  41  42
ENDBRANCH  30  33
ENDBRANCH  28  29
BRANCH  28  44
HETATM   44  C14 MK1 B 902      10.641  25.417   5.590  1.00 28.67     0.052 C 
BRANCH  44  45
HETATM   45  C15 MK1 B 902      10.541  25.472   7.070  1.00 26.89    -0.057 A 
HETATM   46  C16 MK1 B 902       9.347  25.231   7.753  1.00 29.22     0.007 A 
HETATM   47  C17 MK1 B 902       9.291  25.329   9.135  1.00 29.22     0.001 A 
HETATM   48  C18 MK1 B 902      10.450  25.677   9.832  1.00 30.97     0.000 A 
HETATM   49  C19 MK1 B 902      11.652  25.912   9.152  1.00 29.25     0.001 A 
HETATM   50  C20 MK1 B 902      11.692  25.809   7.762  1.00 29.96     0.007 A 
ENDBRANCH  44  45
ENDBRANCH  28  44
ENDBRANCH  27  28
ENDBRANCH  24  27
ENDBRANCH  23  24
ENDBRANCH   4  23
TORSDOF 14
ENDMDL
MODEL 5
REMARK VINA RESULT:     -10.2      2.148     10.765
REMARK  14 active torsions:
REMARK  status: ('A' for Active; 'I' for Inactive)
REMARK    1  A    between atoms: N1_1  and  C31_43 
REMARK    2  A    between atoms: C2_3  and  C3_4 
REMARK       I    between atoms: C3_4  and  N2_6 
REMARK    3  A    between atoms: N2_6  and  C4_8 
REMARK    4  A    between atoms: N3_12  and  C10_15 
REMARK    5  A    between atoms: C10_15  and  C11_16 
REMARK    6  A    between atoms: C11_16  and  O2_17 
REMARK    7  A    between atoms: C11_16  and  C12_19 
REMARK    8  A    between atoms: C12_19  and  C13_20 
REMARK    9  A    between atoms: C13_20  and  C21_28 
REMARK   10  A    between atoms: C13_20  and  C14_21 
REMARK   11  A    between atoms: C14_21  and  C15_22 
REMARK       I    between atoms: C21_28  and  N4_30 
REMARK   12  A    between atoms: N4_30  and  C22_32 
REMARK   13  A    between atoms: C23_33  and  O4_34 
REMARK   14  A    between atoms: C31_43  and  C32_44 
ROOT
HETATM    1  N1  MK1 B 902      17.351  21.285   8.836  1.00 28.25     0.096 N 
HETATM    2  C1  MK1 B 902      17.005  20.992   7.420  1.00 30.30     0.307 C 
HETATM    3  C2  MK1 B 902      15.949  21.792   6.684  1.00 27.27     0.200 C 
HETATM    4  N3  MK1 B 902      14.741  21.577   7.554  1.00 28.91    -0.395 N 
HETATM    5  C8  MK1 B 902      14.905  21.602   9.029  1.00 26.24     0.148 C 
HETATM    6  C9  MK1 B 902      16.203  21.066   9.598  1.00 27.47     0.292 C 
ENDROOT
BRANCH   1   7
HETATM    7  C31 MK1 B 902      18.571  20.669   9.372  1.00 36.25     0.312 C 
BRANCH   7   8
HETATM    8  C32 MK1 B 902      18.538  19.299  10.059  1.00 42.75    -0.015 A 
HETATM    9  C36 MK1 B 902      18.812  19.254  11.409  1.00 44.71     0.011 A 
HETATM   10  C35 MK1 B 902      18.804  18.010  12.035  1.00 49.34     0.018 A 
HETATM   11  C34 MK1 B 902      18.526  16.858  11.293  1.00 50.60     0.087 A 
HETATM   12  N5  MK1 B 902      18.239  16.816   9.930  1.00 51.38    -0.375 N 
HETATM   13  C33 MK1 B 902      18.266  18.106   9.374  1.00 47.41     0.096 A 
HETATM   14  H5  MK1 B 902      18.037  15.964   9.406  1.00  0.00     0.164 HD
ENDBRANCH   7   8
ENDBRANCH   1   7
BRANCH   3  15
HETATM   15  C3  MK1 B 902      15.792  21.214   5.303  1.00 28.85     0.242 C 
HETATM   16  O1  MK1 B 902      15.677  21.952   4.333  1.00 29.59    -0.271 OA
HETATM   17  N2  MK1 B 902      15.772  19.900   5.204  1.00 22.29    -0.351 N 
HETATM   18  H2  MK1 B 902      15.808  19.402   6.095  1.00  0.00     0.163 HD
BRANCH  17  19
HETATM   19  C4  MK1 B 902      15.707  19.060   4.051  1.00 23.47     0.022 C 
HETATM   20  C7  MK1 B 902      15.224  17.706   4.339  1.00 22.75     0.037 C 
HETATM   21  C5  MK1 B 902      17.152  18.859   3.560  1.00 27.66     0.037 C 
HETATM   22  C6  MK1 B 902      14.920  19.581   3.036  1.00 21.71     0.037 C 
ENDBRANCH  17  19
ENDBRANCH   3  15
BRANCH   4  23
HETATM   23  C10 MK1 B 902      13.526  22.285   7.202  1.00 20.86     0.149 C 
BRANCH  23  24
HETATM   24  C11 MK1 B 902      12.620  21.527   6.229  1.00 21.68     0.136 C 
BRANCH  24  25
HETATM   25  O2  MK1 B 902      11.662  21.190   7.186  1.00 15.87    -0.394 OA
HETATM   26  H2  MK1 B 902      11.536  20.249   7.157  1.00  0.00     0.210 HD
ENDBRANCH  24  25
BRANCH  24  27
HETATM   27  C12 MK1 B 902      11.895  22.179   5.038  1.00 21.49     0.047 C 
BRANCH  27  28
HETATM   28  C13 MK1 B 902      12.578  23.281   4.215  1.00 26.89     0.084 C 
BRANCH  28  29
HETATM   29  C21 MK1 B 902      12.394  24.659   4.839  1.00 29.35     0.222 C 
HETATM   30  N4  MK1 B 902      11.291  24.814   5.566  1.00 31.19    -0.350 N 
HETATM   31  H4  MK1 B 902      10.538  24.131   5.479  1.00  0.00     0.163 HD
HETATM   32  O3  MK1 B 902      13.286  25.516   4.751  1.00 32.66    -0.273 OA
BRANCH  30  33
HETATM   33  C22 MK1 B 902      11.133  25.931   6.482  1.00 29.22     0.147 C 
HETATM   34  C30 MK1 B 902       9.791  26.710   6.470  1.00 31.86    -0.027 A 
HETATM   35  C29 MK1 B 902       8.936  27.077   5.480  1.00 27.70     0.010 A 
HETATM   36  C25 MK1 B 902       9.380  27.137   7.908  1.00 31.29    -0.047 A 
HETATM   37  C28 MK1 B 902       7.771  27.783   5.748  1.00 29.01     0.001 A 
HETATM   38  C27 MK1 B 902       7.403  28.151   7.051  1.00 28.00     0.001 A 
HETATM   39  C26 MK1 B 902       8.214  27.827   8.144  1.00 32.00     0.008 A 
HETATM   40  C24 MK1 B 902      10.510  26.557   8.722  1.00 32.05     0.073 C 
HETATM   41  C23 MK1 B 902      11.246  25.498   7.934  1.00 28.82     0.149 C 
BRANCH  41  42
HETATM   42  O4  MK1 B 902      10.720  24.189   8.099  1.00 28.32    -0.393 OA
HETATM   43  H4  MK1 B 902       9.972  24.060   7.527  1.00  0.00     0.210 HD
ENDBRANCH  41  42
ENDBRANCH  30  33
ENDBRANCH  28  29
BRANCH  28  44
HETATM   44  C14 MK1 B 902      12.072  23.322   2.762  1.00 28.67     0.052 C 
BRANCH  44  45
HETATM   45  C15 MK1 B 902      10.611  23.568   2.676  1.00 26.89    -0.057 A 
HETATM   46  C16 MK1 B 902       9.665  22.558   2.862  1.00 29.22     0.007 A 
HETATM   47  C17 MK1 B 902       8.310  22.827   2.736  1.00 29.22     0.001 A 
HETATM   48  C18 MK1 B 902       7.909  24.126   2.417  1.00 30.97     0.000 A 
HETATM   49  C19 MK1 B 902       8.854  25.144   2.238  1.00 29.25     0.001 A 
HETATM   50  C20 MK1 B 902      10.213  24.858   2.369  1.00 29.96     0.007 A 
ENDBRANCH  44  45
ENDBRANCH  28  44
ENDBRANCH  27  28
ENDBRANCH  24  27
ENDBRANCH  23  24
ENDBRANCH   4  23
TORSDOF 14
ENDMDL
MODEL 6
REMARK VINA RESULT:     -10.0      1.927     10.883
REMARK  14 active torsions:
REMARK  status: ('A' for Active; 'I' for Inactive)
REMARK    1  A    between atoms: N1_1  and  C31_43 
REMARK    2  A    between atoms: C2_3  and  C3_4 
REMARK       I    between atoms: C3_4  and  N2_6 
REMARK    3  A    between atoms: N2_6  and  C4_8 
REMARK    4  A    between atoms: N3_12  and  C10_15 
REMARK    5  A    between atoms: C10_15  and  C11_16 
REMARK    6  A    between atoms: C11_16  and  O2_17 
REMARK    7  A    between atoms: C11_16  and  C12_19 
REMARK    8  A    between atoms: C12_19  and  C13_20 
REMARK    9  A    between atoms: C13_20  and  C21_28 
REMARK   10  A    between atoms: C13_20  and  C14_21 
REMARK   11  A    between atoms: C14_21  and  C15_22 
REMARK       I    between atoms: C21_28  and  N4_30 
REMARK   12  A    between atoms: N4_30  and  C22_32 
REMARK   13  A    between atoms: C23_33  and  O4_34 
REMARK   14  A    between atoms: C31_43  and  C32_44 
ROOT
HETATM    1  N1  MK1 B 902      15.648  22.993   6.844  1.00 28.25     0.096 N 
HETATM    2  C1  MK1 B 902      15.614  21.640   6.226  1.00 30.30     0.307 C 
HETATM    3  C2  MK1 B 902      15.192  21.443   4.784  1.00 27.27     0.200 C 
HETATM    4  N3  MK1 B 902      13.807  22.032   4.788  1.00 28.91    -0.395 N 
HETATM    5  C8  MK1 B 902      13.561  23.283   5.548  1.00 26.24     0.148 C 
HETATM    6  C9  MK1 B 902      14.345  23.490   6.828  1.00 27.47     0.292 C 
ENDROOT
BRANCH   1   7
HETATM    7  C31 MK1 B 902      16.341  23.127   8.131  1.00 36.25     0.312 C 
BRANCH   7   8
HETATM    8  C32 MK1 B 902      16.899  21.904   8.868  1.00 42.75    -0.015 A 
HETATM    9  C36 MK1 B 902      16.013  21.134   9.591  1.00 44.71     0.011 A 
HETATM   10  C35 MK1 B 902      16.517  20.033  10.279  1.00 49.34     0.018 A 
HETATM   11  C34 MK1 B 902      17.884  19.743  10.224  1.00 50.60     0.087 A 
HETATM   12  N5  MK1 B 902      18.844  20.467   9.520  1.00 51.38    -0.375 N 
HETATM   13  C33 MK1 B 902      18.257  21.557   8.855  1.00 47.41     0.096 A 
HETATM   14  H5  MK1 B 902      19.837  20.238   9.491  1.00  0.00     0.164 HD
ENDBRANCH   7   8
ENDBRANCH   1   7
BRANCH   3  15
HETATM   15  C3  MK1 B 902      15.204  19.969   4.484  1.00 28.85     0.242 C 
HETATM   16  O1  MK1 B 902      14.501  19.200   5.127  1.00 29.59    -0.271 OA
HETATM   17  N2  MK1 B 902      16.008  19.561   3.520  1.00 22.29    -0.351 N 
HETATM   18  H2  MK1 B 902      16.589  20.292   3.109  1.00  0.00     0.163 HD
BRANCH  17  19
HETATM   19  C4  MK1 B 902      16.194  18.261   2.960  1.00 23.47     0.022 C 
HETATM   20  C7  MK1 B 902      16.965  18.266   1.713  1.00 22.75     0.037 C 
HETATM   21  C5  MK1 B 902      14.803  17.743   2.553  1.00 27.66     0.037 C 
HETATM   22  C6  MK1 B 902      16.805  17.371   3.830  1.00 21.71     0.037 C 
ENDBRANCH  17  19
ENDBRANCH   3  15
BRANCH   4  23
HETATM   23  C10 MK1 B 902      13.105  22.101   3.522  1.00 20.86     0.149 C 
BRANCH  23  24
HETATM   24  C11 MK1 B 902      11.868  23.001   3.541  1.00 21.68     0.136 C 
BRANCH  24  25
HETATM   25  O2  MK1 B 902      12.231  23.739   2.413  1.00 15.87    -0.394 OA
HETATM   26  H2  MK1 B 902      13.128  24.031   2.529  1.00  0.00     0.210 HD
ENDBRANCH  24  25
BRANCH  24  27
HETATM   27  C12 MK1 B 902      10.428  22.495   3.335  1.00 21.49     0.047 C 
BRANCH  27  28
HETATM   28  C13 MK1 B 902       9.270  23.486   3.152  1.00 26.89     0.084 C 
BRANCH  28  29
HETATM   29  C21 MK1 B 902       9.529  24.808   3.866  1.00 29.35     0.222 C 
HETATM   30  N4  MK1 B 902       9.466  24.760   5.194  1.00 31.19    -0.350 N 
HETATM   31  H4  MK1 B 902       9.030  23.955   5.643  1.00  0.00     0.163 HD
HETATM   32  O3  MK1 B 902       9.884  25.810   3.228  1.00 32.66    -0.273 OA
BRANCH  30  33
HETATM   33  C22 MK1 B 902      10.002  25.828   6.020  1.00 29.22     0.147 C 
HETATM   34  C30 MK1 B 902       9.024  26.623   6.925  1.00 31.86    -0.027 A 
HETATM   35  C29 MK1 B 902       7.745  27.053   6.763  1.00 27.70     0.010 A 
HETATM   36  C25 MK1 B 902       9.685  26.977   8.287  1.00 31.29    -0.047 A 
HETATM   37  C28 MK1 B 902       7.081  27.758   7.757  1.00 29.01     0.001 A 
HETATM   38  C27 MK1 B 902       7.683  28.059   8.988  1.00 28.00     0.001 A 
HETATM   39  C26 MK1 B 902       8.999  27.667   9.259  1.00 32.00     0.008 A 
HETATM   40  C24 MK1 B 902      11.044  26.341   8.129  1.00 32.05     0.073 C 
HETATM   41  C23 MK1 B 902      11.027  25.317   7.018  1.00 28.82     0.149 C 
BRANCH  41  42
HETATM   42  O4  MK1 B 902      10.684  24.007   7.447  1.00 28.32    -0.393 OA
HETATM   43  H4  MK1 B 902       9.974  23.663   6.917  1.00  0.00     0.210 HD
ENDBRANCH  41  42
ENDBRANCH  30  33
ENDBRANCH  28  29
BRANCH  28  44
HETATM   44  C14 MK1 B 902       7.928  22.912   3.640  1.00 28.67     0.052 C 
BRANCH  44  45
HETATM   45  C15 MK1 B 902       6.766  23.511   2.937  1.00 26.89    -0.057 A 
HETATM   46  C16 MK1 B 902       6.885  24.173   1.714  1.00 29.22     0.007 A 
HETATM   47  C17 MK1 B 902       5.776  24.750   1.112  1.00 29.22     0.001 A 
HETATM   48  C18 MK1 B 902       4.539  24.657   1.752  1.00 30.97     0.000 A 
HETATM   49  C19 MK1 B 902       4.413  23.987   2.975  1.00 29.25     0.001 A 
HETATM   50  C20 MK1 B 902       5.537  23.412   3.568  1.00 29.96     0.007 A 
ENDBRANCH  44  45
ENDBRANCH  28  44
ENDBRANCH  27  28
ENDBRANCH  24  27
ENDBRANCH  23  24
ENDBRANCH   4  23
TORSDOF 14
ENDMDL
MODEL 7
REMARK VINA RESULT:      -9.9      2.154     10.841
REMARK  14 active torsions:
REMARK  status: ('A' for Active; 'I' for Inactive)
REMARK    1  A    between atoms: N1_1  and  C31_43 
REMARK    2  A    between atoms: C2_3  and  C3_4 
REMARK       I    between atoms: C3_4  and  N2_6 
REMARK    3  A    between atoms: N2_6  and  C4_8 
REMARK    4  A    between atoms: N3_12  and  C10_15 
REMARK    5  A    between atoms: C10_15  and  C11_16 
REMARK    6  A    between atoms: C11_16  and  O2_17 
REMARK    7  A    between atoms: C11_16  and  C12_19 
REMARK    8  A    between atoms: C12_19  and  C13_20 
REMARK    9  A    between atoms: C13_20  and  C21_28 
REMARK   10  A    between atoms: C13_20  and  C14_21 
REMARK   11  A    between atoms: C14_21  and  C15_22 
REMARK       I    between atoms: C21_28  and  N4_30 
REMARK   12  A    between atoms: N4_30  and  C22_32 
REMARK   13  A    between atoms: C23_33  and  O4_34 
REMARK   14  A    between atoms: C31_43  and  C32_44 
ROOT
HETATM    1  N1  MK1 B 902      15.179  23.213   6.945  1.00 28.25     0.096 N 
HETATM    2  C1  MK1 B 902      15.319  22.225   5.841  1.00 30.30     0.307 C 
HETATM    3  C2  MK1 B 902      14.536  22.368   4.551  1.00 27.27     0.200 C 
HETATM    4  N3  MK1 B 902      13.118  22.367   5.054  1.00 28.91    -0.395 N 
HETATM    5  C8  MK1 B 902      12.795  23.117   6.294  1.00 26.24     0.148 C 
HETATM    6  C9  MK1 B 902      13.854  23.169   7.376  1.00 27.47     0.292 C 
ENDROOT
BRANCH   1   7
HETATM    7  C31 MK1 B 902      16.177  23.165   8.020  1.00 36.25     0.312 C 
BRANCH   7   8
HETATM    8  C32 MK1 B 902      16.740  21.832   8.529  1.00 42.75    -0.015 A 
HETATM    9  C36 MK1 B 902      18.079  21.583   8.322  1.00 44.71     0.011 A 
HETATM   10  C35 MK1 B 902      18.592  20.366   8.763  1.00 49.34     0.018 A 
HETATM   11  C34 MK1 B 902      17.751  19.442   9.392  1.00 50.60     0.087 A 
HETATM   12  N5  MK1 B 902      16.390  19.615   9.640  1.00 51.38    -0.375 N 
HETATM   13  C33 MK1 B 902      15.952  20.863   9.166  1.00 47.41     0.096 A 
HETATM   14  H5  MK1 B 902      15.794  18.928  10.101  1.00  0.00     0.164 HD
ENDBRANCH   7   8
ENDBRANCH   1   7
BRANCH   3  15
HETATM   15  C3  MK1 B 902      14.851  21.189   3.672  1.00 28.85     0.242 C 
HETATM   16  O1  MK1 B 902      14.869  21.312   2.454  1.00 29.59    -0.271 OA
HETATM   17  N2  MK1 B 902      15.086  20.040   4.275  1.00 22.29    -0.351 N 
HETATM   18  H2  MK1 B 902      14.973  20.056   5.289  1.00  0.00     0.163 HD
BRANCH  17  19
HETATM   19  C4  MK1 B 902      15.474  18.775   3.736  1.00 23.47     0.022 C 
HETATM   20  C7  MK1 B 902      15.219  17.650   4.641  1.00 22.75     0.037 C 
HETATM   21  C5  MK1 B 902      17.005  18.805   3.577  1.00 27.66     0.037 C 
HETATM   22  C6  MK1 B 902      14.869  18.486   2.523  1.00 21.71     0.037 C 
ENDBRANCH  17  19
ENDBRANCH   3  15
BRANCH   4  23
HETATM   23  C10 MK1 B 902      12.063  22.582   4.083  1.00 20.86     0.149 C 
BRANCH  23  24
HETATM   24  C11 MK1 B 902      11.580  24.030   3.992  1.00 21.68     0.136 C 
BRANCH  24  25
HETATM   25  O2  MK1 B 902      12.153  24.276   2.743  1.00 15.87    -0.394 OA
HETATM   26  H2  MK1 B 902      11.877  25.139   2.458  1.00  0.00     0.210 HD
ENDBRANCH  24  25
BRANCH  24  27
HETATM   27  C12 MK1 B 902      10.099  24.445   3.927  1.00 21.49     0.047 C 
BRANCH  27  28
HETATM   28  C13 MK1 B 902       9.454  25.225   5.082  1.00 26.89     0.084 C 
BRANCH  28  29
HETATM   29  C21 MK1 B 902       8.293  26.091   4.610  1.00 29.35     0.222 C 
HETATM   30  N4  MK1 B 902       7.082  25.652   4.942  1.00 31.19    -0.350 N 
HETATM   31  H4  MK1 B 902       6.971  24.689   5.260  1.00  0.00     0.163 HD
HETATM   32  O3  MK1 B 902       8.502  27.182   4.058  1.00 32.66    -0.273 OA
BRANCH  30  33
HETATM   33  C22 MK1 B 902       5.912  26.510   4.862  1.00 29.22     0.147 C 
HETATM   34  C30 MK1 B 902       4.543  25.863   4.526  1.00 31.86    -0.027 A 
HETATM   35  C29 MK1 B 902       4.168  24.854   3.696  1.00 27.70     0.010 A 
HETATM   36  C25 MK1 B 902       3.393  26.536   5.328  1.00 31.29    -0.047 A 
HETATM   37  C28 MK1 B 902       2.842  24.457   3.583  1.00 29.01     0.001 A 
HETATM   38  C27 MK1 B 902       1.816  25.064   4.322  1.00 28.00     0.001 A 
HETATM   39  C26 MK1 B 902       2.091  26.115   5.204  1.00 32.00     0.008 A 
HETATM   40  C24 MK1 B 902       4.157  27.557   6.136  1.00 32.05     0.073 C 
HETATM   41  C23 MK1 B 902       5.627  27.209   6.181  1.00 28.82     0.149 C 
BRANCH  41  42
HETATM   42  O4  MK1 B 902       5.988  26.371   7.269  1.00 28.32    -0.393 OA
HETATM   43  H4  MK1 B 902       6.790  26.683   7.672  1.00  0.00     0.210 HD
ENDBRANCH  41  42
ENDBRANCH  30  33
ENDBRANCH  28  29
BRANCH  28  44
HETATM   44  C14 MK1 B 902      10.468  26.112   5.824  1.00 28.67     0.052 C 
BRANCH  44  45
HETATM   45  C15 MK1 B 902      10.423  25.918   7.295  1.00 26.89    -0.057 A 
HETATM   46  C16 MK1 B 902       9.253  25.569   7.972  1.00 29.22     0.007 A 
HETATM   47  C17 MK1 B 902       9.248  25.434   9.352  1.00 29.22     0.001 A 
HETATM   48  C18 MK1 B 902      10.435  25.656  10.053  1.00 30.97     0.000 A 
HETATM   49  C19 MK1 B 902      11.612  26.000   9.378  1.00 29.25     0.001 A 
HETATM   50  C20 MK1 B 902      11.601  26.131   7.989  1.00 29.96     0.007 A 
ENDBRANCH  44  45
ENDBRANCH  28  44
ENDBRANCH  27  28
ENDBRANCH  24  27
ENDBRANCH  23  24
ENDBRANCH   4  23
TORSDOF 14
ENDMDL
MODEL 8
REMARK VINA RESULT:      -9.9      1.470      3.629
REMARK  14 active torsions:
REMARK  status: ('A' for Active; 'I' for Inactive)
REMARK    1  A    between atoms: N1_1  and  C31_43 
REMARK    2  A    between atoms: C2_3  and  C3_4 
REMARK       I    between atoms: C3_4  and  N2_6 
REMARK    3  A    between atoms: N2_6  and  C4_8 
REMARK    4  A    between atoms: N3_12  and  C10_15 
REMARK    5  A    between atoms: C10_15  and  C11_16 
REMARK    6  A    between atoms: C11_16  and  O2_17 
REMARK    7  A    between atoms: C11_16  and  C12_19 
REMARK    8  A    between atoms: C12_19  and  C13_20 
REMARK    9  A    between atoms: C13_20  and  C21_28 
REMARK   10  A    between atoms: C13_20  and  C14_21 
REMARK   11  A    between atoms: C14_21  and  C15_22 
REMARK       I    between atoms: C21_28  and  N4_30 
REMARK   12  A    between atoms: N4_30  and  C22_32 
REMARK   13  A    between atoms: C23_33  and  O4_34 
REMARK   14  A    between atoms: C31_43  and  C32_44 
ROOT
HETATM    1  N1  MK1 B 902      10.478  24.792   7.751  1.00 28.25     0.096 N 
HETATM    2  C1  MK1 B 902      10.068  24.601   6.334  1.00 30.30     0.307 C 
HETATM    3  C2  MK1 B 902      11.045  24.090   5.293  1.00 27.27     0.200 C 
HETATM    4  N3  MK1 B 902      12.138  25.121   5.368  1.00 28.91    -0.395 N 
HETATM    5  C8  MK1 B 902      12.554  25.630   6.699  1.00 26.24     0.148 C 
HETATM    6  C9  MK1 B 902      11.486  25.756   7.766  1.00 27.47     0.292 C 
ENDROOT
BRANCH   1   7
HETATM    7  C31 MK1 B 902       9.411  25.003   8.737  1.00 36.25     0.312 C 
BRANCH   7   8
HETATM    8  C32 MK1 B 902       8.472  26.212   8.651  1.00 42.75    -0.015 A 
HETATM    9  C36 MK1 B 902       7.378  26.114   7.818  1.00 44.71     0.011 A 
HETATM   10  C35 MK1 B 902       6.532  27.216   7.721  1.00 49.34     0.018 A 
HETATM   11  C34 MK1 B 902       6.810  28.374   8.453  1.00 50.60     0.087 A 
HETATM   12  N5  MK1 B 902       7.891  28.556   9.314  1.00 51.38    -0.375 N 
HETATM   13  C33 MK1 B 902       8.692  27.403   9.357  1.00 47.41     0.096 A 
HETATM   14  H5  MK1 B 902       8.075  29.410   9.840  1.00  0.00     0.164 HD
ENDBRANCH   7   8
ENDBRANCH   1   7
BRANCH   3  15
HETATM   15  C3  MK1 B 902      10.347  24.067   3.960  1.00 28.85     0.242 C 
HETATM   16  O1  MK1 B 902      10.820  23.433   3.025  1.00 29.59    -0.271 OA
HETATM   17  N2  MK1 B 902       9.233  24.764   3.856  1.00 22.29    -0.351 N 
HETATM   18  H2  MK1 B 902       8.984  25.302   4.687  1.00  0.00     0.163 HD
BRANCH  17  19
HETATM   19  C4  MK1 B 902       8.318  24.888   2.766  1.00 23.47     0.022 C 
HETATM   20  C7  MK1 B 902       8.819  25.726   1.672  1.00 22.75     0.037 C 
HETATM   21  C5  MK1 B 902       7.085  25.643   3.298  1.00 27.66     0.037 C 
HETATM   22  C6  MK1 B 902       7.941  23.669   2.225  1.00 21.71     0.037 C 
ENDBRANCH  17  19
ENDBRANCH   3  15
BRANCH   4  23
HETATM   23  C10 MK1 B 902      13.318  24.907   4.554  1.00 20.86     0.149 C 
BRANCH  23  24
HETATM   24  C11 MK1 B 902      14.276  23.850   5.104  1.00 21.68     0.136 C 
BRANCH  24  25
HETATM   25  O2  MK1 B 902      15.438  24.522   4.723  1.00 15.87    -0.394 OA
HETATM   26  H2  MK1 B 902      15.432  25.377   5.137  1.00  0.00     0.210 HD
ENDBRANCH  24  25
BRANCH  24  27
HETATM   27  C12 MK1 B 902      14.402  23.490   6.596  1.00 21.49     0.047 C 
BRANCH  27  28
HETATM   28  C13 MK1 B 902      15.553  22.604   7.092  1.00 26.89     0.084 C 
BRANCH  28  29
HETATM   29  C21 MK1 B 902      15.530  21.222   6.450  1.00 29.35     0.222 C 
HETATM   30  N4  MK1 B 902      16.693  20.805   5.955  1.00 31.19    -0.350 N 
HETATM   31  H4  MK1 B 902      17.444  21.479   5.810  1.00  0.00     0.163 HD
HETATM   32  O3  MK1 B 902      14.512  20.517   6.505  1.00 32.66    -0.273 OA
BRANCH  30  33
HETATM   33  C22 MK1 B 902      16.918  19.410   5.616  1.00 29.22     0.147 C 
HETATM   34  C30 MK1 B 902      16.673  18.957   4.153  1.00 31.86    -0.027 A 
HETATM   35  C29 MK1 B 902      15.748  19.294   3.216  1.00 27.70     0.010 A 
HETATM   36  C25 MK1 B 902      17.727  17.903   3.709  1.00 31.29    -0.047 A 
HETATM   37  C28 MK1 B 902      15.756  18.730   1.947  1.00 29.01     0.001 A 
HETATM   38  C27 MK1 B 902      16.720  17.790   1.554  1.00 28.00     0.001 A 
HETATM   39  C26 MK1 B 902      17.717  17.369   2.442  1.00 32.00     0.008 A 
HETATM   40  C24 MK1 B 902      18.578  17.797   4.950  1.00 32.05     0.073 C 
HETATM   41  C23 MK1 B 902      18.361  18.993   5.848  1.00 28.82     0.149 C 
BRANCH  41  42
HETATM   42  O4  MK1 B 902      19.235  20.080   5.583  1.00 28.32    -0.393 OA
HETATM   43  H4  MK1 B 902      20.122  19.860   5.843  1.00  0.00     0.210 HD
ENDBRANCH  41  42
ENDBRANCH  30  33
ENDBRANCH  28  29
BRANCH  28  44
HETATM   44  C14 MK1 B 902      15.546  22.442   8.622  1.00 28.67     0.052 C 
BRANCH  44  45
HETATM   45  C15 MK1 B 902      16.646  21.570   9.106  1.00 26.89    -0.057 A 
HETATM   46  C16 MK1 B 902      17.992  21.853   8.864  1.00 29.22     0.007 A 
HETATM   47  C17 MK1 B 902      18.985  20.990   9.303  1.00 29.22     0.001 A 
HETATM   48  C18 MK1 B 902      18.615  19.832   9.990  1.00 30.97     0.000 A 
HETATM   49  C19 MK1 B 902      17.267  19.549  10.241  1.00 29.25     0.001 A 
HETATM   50  C20 MK1 B 902      16.280  20.426   9.794  1.00 29.96     0.007 A 
ENDBRANCH  44  45
ENDBRANCH  28  44
ENDBRANCH  27  28
ENDBRANCH  24  27
ENDBRANCH  23  24
ENDBRANCH   4  23
TORSDOF 14
ENDMDL
MODEL 9
REMARK VINA RESULT:      -9.9      2.464      5.590
REMARK  14 active torsions:
REMARK  status: ('A' for Active; 'I' for Inactive)
REMARK    1  A    between atoms: N1_1  and  C31_43 
REMARK    2  A    between atoms: C2_3  and  C3_4 
REMARK       I    between atoms: C3_4  and  N2_6 
REMARK    3  A    between atoms: N2_6  and  C4_8 
REMARK    4  A    between atoms: N3_12  and  C10_15 
REMARK    5  A    between atoms: C10_15  and  C11_16 
REMARK    6  A    between atoms: C11_16  and  O2_17 
REMARK    7  A    between atoms: C11_16  and  C12_19 
REMARK    8  A    between atoms: C12_19  and  C13_20 
REMARK    9  A    between atoms: C13_20  and  C21_28 
REMARK   10  A    between atoms: C13_20  and  C14_21 
REMARK   11  A    between atoms: C14_21  and  C15_22 
REMARK       I    between atoms: C21_28  and  N4_30 
REMARK   12  A    between atoms: N4_30  and  C22_32 
REMARK   13  A    between atoms: C23_33  and  O4_34 
REMARK   14  A    between atoms: C31_43  and  C32_44 
ROOT
HETATM    1  N1  MK1 B 902      12.415  23.917   4.235  1.00 28.25     0.096 N 
HETATM    2  C1  MK1 B 902      11.933  24.627   5.450  1.00 30.30     0.307 C 
HETATM    3  C2  MK1 B 902      12.866  24.934   6.605  1.00 27.27     0.200 C 
HETATM    4  N3  MK1 B 902      13.351  23.560   6.981  1.00 28.91    -0.395 N 
HETATM    5  C8  MK1 B 902      13.677  22.594   5.901  1.00 26.24     0.148 C 
HETATM    6  C9  MK1 B 902      12.847  22.653   4.635  1.00 27.47     0.292 C 
ENDROOT
BRANCH   1   7
HETATM    7  C31 MK1 B 902      11.535  23.923   3.060  1.00 36.25     0.312 C 
BRANCH   7   8
HETATM    8  C32 MK1 B 902      10.012  24.019   3.204  1.00 42.75    -0.015 A 
HETATM    9  C36 MK1 B 902       9.396  25.159   2.735  1.00 44.71     0.011 A 
HETATM   10  C35 MK1 B 902       8.014  25.261   2.881  1.00 49.34     0.018 A 
HETATM   11  C34 MK1 B 902       7.300  24.226   3.491  1.00 50.60     0.087 A 
HETATM   12  N5  MK1 B 902       7.844  23.044   3.992  1.00 51.38    -0.375 N 
HETATM   13  C33 MK1 B 902       9.236  23.018   3.806  1.00 47.41     0.096 A 
HETATM   14  H5  MK1 B 902       7.304  22.300   4.433  1.00  0.00     0.164 HD
ENDBRANCH   7   8
ENDBRANCH   1   7
BRANCH   3  15
HETATM   15  C3  MK1 B 902      12.068  25.596   7.696  1.00 28.85     0.242 C 
HETATM   16  O1  MK1 B 902      12.625  26.020   8.700  1.00 29.59    -0.271 OA
HETATM   17  N2  MK1 B 902      10.764  25.677   7.517  1.00 22.29    -0.351 N 
HETATM   18  H2  MK1 B 902      10.418  25.225   6.670  1.00  0.00     0.163 HD
BRANCH  17  19
HETATM   19  C4  MK1 B 902       9.757  26.297   8.319  1.00 23.47     0.022 C 
HETATM   20  C7  MK1 B 902       8.513  26.566   7.592  1.00 22.75     0.037 C 
HETATM   21  C5  MK1 B 902      10.287  27.689   8.709  1.00 27.66     0.037 C 
HETATM   22  C6  MK1 B 902       9.434  25.568   9.453  1.00 21.71     0.037 C 
ENDBRANCH  17  19
ENDBRANCH   3  15
BRANCH   4  23
HETATM   23  C10 MK1 B 902      14.356  23.465   8.020  1.00 20.86     0.149 C 
BRANCH  23  24
HETATM   24  C11 MK1 B 902      15.622  22.716   7.601  1.00 21.68     0.136 C 
BRANCH  24  25
HETATM   25  O2  MK1 B 902      16.436  23.850   7.572  1.00 15.87    -0.394 OA
HETATM   26  H2  MK1 B 902      15.939  24.559   7.181  1.00  0.00     0.210 HD
ENDBRANCH  24  25
BRANCH  24  27
HETATM   27  C12 MK1 B 902      16.321  21.649   8.464  1.00 21.49     0.047 C 
BRANCH  27  28
HETATM   28  C13 MK1 B 902      16.748  20.307   7.853  1.00 26.89     0.084 C 
BRANCH  28  29
HETATM   29  C21 MK1 B 902      17.783  19.590   8.711  1.00 29.35     0.222 C 
HETATM   30  N4  MK1 B 902      17.290  18.850   9.700  1.00 31.19    -0.350 N 
HETATM   31  H4  MK1 B 902      16.318  18.980   9.983  1.00  0.00     0.163 HD
HETATM   32  O3  MK1 B 902      18.986  19.624   8.410  1.00 32.66    -0.273 OA
BRANCH  30  33
HETATM   33  C22 MK1 B 902      18.101  17.860  10.388  1.00 29.22     0.147 C 
HETATM   34  C30 MK1 B 902      18.811  18.274  11.704  1.00 31.86    -0.027 A 
HETATM   35  C29 MK1 B 902      19.414  19.420  12.117  1.00 27.70     0.010 A 
HETATM   36  C25 MK1 B 902      18.807  17.108  12.733  1.00 31.29    -0.047 A 
HETATM   37  C28 MK1 B 902      19.981  19.531  13.380  1.00 29.01     0.001 A 
HETATM   38  C27 MK1 B 902      19.959  18.477  14.304  1.00 28.00     0.001 A 
HETATM   39  C26 MK1 B 902      19.367  17.251  13.980  1.00 32.00     0.008 A 
HETATM   40  C24 MK1 B 902      18.057  16.044  11.969  1.00 32.05     0.073 C 
HETATM   41  C23 MK1 B 902      17.283  16.656  10.824  1.00 28.82     0.149 C 
BRANCH  41  42
HETATM   42  O4  MK1 B 902      15.965  17.056  11.169  1.00 28.32    -0.393 OA
HETATM   43  H4  MK1 B 902      15.745  17.872  10.735  1.00  0.00     0.210 HD
ENDBRANCH  41  42
ENDBRANCH  30  33
ENDBRANCH  28  29
BRANCH  28  44
HETATM   44  C14 MK1 B 902      17.307  20.466   6.428  1.00 28.67     0.052 C 
BRANCH  44  45
HETATM   45  C15 MK1 B 902      16.766  19.452   5.489  1.00 26.89    -0.057 A 
HETATM   46  C16 MK1 B 902      15.399  19.198   5.361  1.00 29.22     0.007 A 
HETATM   47  C17 MK1 B 902      14.941  18.214   4.497  1.00 29.22     0.001 A 
HETATM   48  C18 MK1 B 902      15.872  17.481   3.759  1.00 30.97     0.000 A 
HETATM   49  C19 MK1 B 902      17.243  17.737   3.879  1.00 29.25     0.001 A 
HETATM   50  C20 MK1 B 902      17.689  18.730   4.751  1.00 29.96     0.007 A 
ENDBRANCH  44  45
ENDBRANCH  28  44
ENDBRANCH  27  28
ENDBRANCH  24  27
ENDBRANCH  23  24
ENDBRANCH   4  23
TORSDOF 14
ENDMDL
MODEL 10
REMARK VINA RESULT:      -9.7      2.265      4.074
REMARK  14 active torsions:
REMARK  status: ('A' for Active; 'I' for Inactive)
REMARK    1  A    between atoms: N1_1  and  C31_43 
REMARK    2  A    between atoms: C2_3  and  C3_4 
REMARK       I    between atoms: C3_4  and  N2_6 
REMARK    3  A    between atoms: N2_6  and  C4_8 
REMARK    4  A    between atoms: N3_12  and  C10_15 
REMARK    5  A    between atoms: C10_15  and  C11_16 
REMARK    6  A    between atoms: C11_16  and  O2_17 
REMARK    7  A    between atoms: C11_16  and  C12_19 
REMARK    8  A    between atoms: C12_19  and  C13_20 
REMARK    9  A    between atoms: C13_20  and  C21_28 
REMARK   10  A    between atoms: C13_20  and  C14_21 
REMARK   11  A    between atoms: C14_21  and  C15_22 
REMARK       I    between atoms: C21_28  and  N4_30 
REMARK   12  A    between atoms: N4_30  and  C22_32 
REMARK   13  A    between atoms: C23_33  and  O4_34 
REMARK   14  A    between atoms: C31_43  and  C32_44 
ROOT
HETATM    1  N1  MK1 B 902       6.689  25.043   1.931  1.00 28.25     0.096 N 
HETATM    2  C1  MK1 B 902       6.832  25.847   3.174  1.00 30.30     0.307 C 
HETATM    3  C2  MK1 B 902       8.192  26.304   3.666  1.00 27.27     0.200 C 
HETATM    4  N3  MK1 B 902       8.915  24.994   3.824  1.00 28.91    -0.395 N 
HETATM    5  C8  MK1 B 902       8.729  23.942   2.793  1.00 26.24     0.148 C 
HETATM    6  C9  MK1 B 902       7.370  23.843   2.131  1.00 27.47     0.292 C 
ENDROOT
BRANCH   1   7
HETATM    7  C31 MK1 B 902       5.338  24.898   1.377  1.00 36.25     0.312 C 
BRANCH   7   8
HETATM    8  C32 MK1 B 902       4.122  24.677   2.284  1.00 42.75    -0.015 A 
HETATM    9  C36 MK1 B 902       3.745  23.376   2.543  1.00 44.71     0.011 A 
HETATM   10  C35 MK1 B 902       2.629  23.169   3.350  1.00 49.34     0.018 A 
HETATM   11  C34 MK1 B 902       1.930  24.264   3.867  1.00 50.60     0.087 A 
HETATM   12  N5  MK1 B 902       2.243  25.606   3.655  1.00 51.38    -0.375 N 
HETATM   13  C33 MK1 B 902       3.376  25.729   2.834  1.00 47.41     0.096 A 
HETATM   14  H5  MK1 B 902       1.720  26.391   4.042  1.00  0.00     0.164 HD
ENDBRANCH   7   8
ENDBRANCH   1   7
BRANCH   3  15
HETATM   15  C3  MK1 B 902       8.004  27.035   4.967  1.00 28.85     0.242 C 
HETATM   16  O1  MK1 B 902       8.818  27.877   5.326  1.00 29.59    -0.271 OA
HETATM   17  N2  MK1 B 902       6.946  26.715   5.686  1.00 22.29    -0.351 N 
HETATM   18  H2  MK1 B 902       6.385  25.952   5.307  1.00  0.00     0.163 HD
BRANCH  17  19
HETATM   19  C4  MK1 B 902       6.460  27.265   6.911  1.00 23.47     0.022 C 
HETATM   20  C7  MK1 B 902       5.109  26.813   7.260  1.00 22.75     0.037 C 
HETATM   21  C5  MK1 B 902       6.317  28.783   6.697  1.00 27.66     0.037 C 
HETATM   22  C6  MK1 B 902       7.284  27.006   7.995  1.00 21.71     0.037 C 
ENDBRANCH  17  19
ENDBRANCH   3  15
BRANCH   4  23
HETATM   23  C10 MK1 B 902      10.313  25.042   4.204  1.00 20.86     0.149 C 
BRANCH  23  24
HETATM   24  C11 MK1 B 902      11.225  24.162   3.349  1.00 21.68     0.136 C 
BRANCH  24  25
HETATM   25  O2  MK1 B 902      12.093  25.194   2.987  1.00 15.87    -0.394 OA
HETATM   26  H2  MK1 B 902      11.616  25.797   2.429  1.00  0.00     0.210 HD
ENDBRANCH  24  25
BRANCH  24  27
HETATM   27  C12 MK1 B 902      12.071  23.000   3.901  1.00 21.49     0.047 C 
BRANCH  27  28
HETATM   28  C13 MK1 B 902      12.363  22.892   5.405  1.00 26.89     0.084 C 
BRANCH  28  29
HETATM   29  C21 MK1 B 902      12.987  21.551   5.772  1.00 29.35     0.222 C 
HETATM   30  N4  MK1 B 902      13.904  21.097   4.922  1.00 31.19    -0.350 N 
HETATM   31  H4  MK1 B 902      13.970  21.511   3.993  1.00  0.00     0.163 HD
HETATM   32  O3  MK1 B 902      12.720  21.006   6.854  1.00 32.66    -0.273 OA
BRANCH  30  33
HETATM   33  C22 MK1 B 902      14.813  20.024   5.286  1.00 29.22     0.147 C 
HETATM   34  C30 MK1 B 902      15.588  19.298   4.155  1.00 31.86    -0.027 A 
HETATM   35  C29 MK1 B 902      15.258  18.925   2.890  1.00 27.70     0.010 A 
HETATM   36  C25 MK1 B 902      17.034  18.944   4.605  1.00 31.29    -0.047 A 
HETATM   37  C28 MK1 B 902      16.163  18.276   2.062  1.00 29.01     0.001 A 
HETATM   38  C27 MK1 B 902      17.470  17.975   2.474  1.00 28.00     0.001 A 
HETATM   39  C26 MK1 B 902      17.913  18.310   3.758  1.00 32.00     0.008 A 
HETATM   40  C24 MK1 B 902      17.055  19.511   6.002  1.00 32.05     0.073 C 
HETATM   41  C23 MK1 B 902      15.935  20.509   6.189  1.00 28.82     0.149 C 
BRANCH  41  42
HETATM   42  O4  MK1 B 902      16.291  21.843   5.857  1.00 28.32    -0.393 OA
HETATM   43  H4  MK1 B 902      16.523  22.327   6.641  1.00  0.00     0.210 HD
ENDBRANCH  41  42
ENDBRANCH  30  33
ENDBRANCH  28  29
BRANCH  28  44
HETATM   44  C14 MK1 B 902      11.103  23.106   6.260  1.00 28.67     0.052 C 
BRANCH  44  45
HETATM   45  C15 MK1 B 902      11.291  24.151   7.298  1.00 26.89    -0.057 A 
HETATM   46  C16 MK1 B 902      10.228  24.684   8.030  1.00 29.22     0.007 A 
HETATM   47  C17 MK1 B 902      10.446  25.686   8.965  1.00 29.22     0.001 A 
HETATM   48  C18 MK1 B 902      11.747  26.154   9.158  1.00 30.97     0.000 A 
HETATM   49  C19 MK1 B 902      12.817  25.617   8.431  1.00 29.25     0.001 A 
HETATM   50  C20 MK1 B 902      12.582  24.609   7.496  1.00 29.96     0.007 A 
ENDBRANCH  44  45
ENDBRANCH  28  44
ENDBRANCH  27  28
ENDBRANCH  24  27
ENDBRANCH  23  24
ENDBRANCH   4  23
TORSDOF 14
ENDMDL
MODEL 11
REMARK VINA RESULT:      -9.7      2.036     10.228
REMARK  14 active torsions:
REMARK  status: ('A' for Active; 'I' for Inactive)
REMARK    1  A    between atoms: N1_1  and  C31_43 
REMARK    2  A    between atoms: C2_3  and  C3_4 
REMARK       I    between atoms: C3_4  and  N2_6 
REMARK    3  A    between atoms: N2_6  and  C4_8 
REMARK    4  A    between atoms: N3_12  and  C10_15 
REMARK    5  A    between atoms: C10_15  and  C11_16 
REMARK    6  A    between atoms: C11_16  and  O2_17 
REMARK    7  A    between atoms: C11_16  and  C12_19 
REMARK    8  A    between atoms: C12_19  and  C13_20 
REMARK    9  A    between atoms: C13_20  and  C21_28 
REMARK   10  A    between atoms: C13_20  and  C14_21 
REMARK   11  A    between atoms: C14_21  and  C15_22 
REMARK       I    between atoms: C21_28  and  N4_30 
REMARK   12  A    between atoms: N4_30  and  C22_32 
REMARK   13  A    between atoms: C23_33  and  O4_34 
REMARK   14  A    between atoms: C31_43  and  C32_44 
ROOT
HETATM    1  N1  MK1 B 902      14.656  19.489   3.741  1.00 28.25     0.096 N 
HETATM    2  C1  MK1 B 902      15.041  19.940   5.105  1.00 30.30     0.307 C 
HETATM    3  C2  MK1 B 902      14.349  21.112   5.772  1.00 27.27     0.200 C 
HETATM    4  N3  MK1 B 902      14.601  22.218   4.784  1.00 28.91    -0.395 N 
HETATM    5  C8  MK1 B 902      14.493  21.923   3.333  1.00 26.24     0.148 C 
HETATM    6  C9  MK1 B 902      14.912  20.544   2.866  1.00 27.47     0.292 C 
ENDROOT
BRANCH   1   7
HETATM    7  C31 MK1 B 902      15.162  18.185   3.297  1.00 36.25     0.312 C 
BRANCH   7   8
HETATM    8  C32 MK1 B 902      16.551  17.684   3.712  1.00 42.75    -0.015 A 
HETATM    9  C36 MK1 B 902      16.645  16.955   4.878  1.00 44.71     0.011 A 
HETATM   10  C35 MK1 B 902      17.907  16.514   5.271  1.00 49.34     0.018 A 
HETATM   11  C34 MK1 B 902      19.026  16.818   4.490  1.00 50.60     0.087 A 
HETATM   12  N5  MK1 B 902      19.017  17.546   3.301  1.00 51.38    -0.375 N 
HETATM   13  C33 MK1 B 902      17.713  17.953   2.975  1.00 47.41     0.096 A 
HETATM   14  H5  MK1 B 902      19.846  17.756   2.745  1.00  0.00     0.164 HD
ENDBRANCH   7   8
ENDBRANCH   1   7
BRANCH   3  15
HETATM   15  C3  MK1 B 902      15.004  21.353   7.106  1.00 28.85     0.242 C 
HETATM   16  O1  MK1 B 902      14.347  21.773   8.050  1.00 29.59    -0.271 OA
HETATM   17  N2  MK1 B 902      16.296  21.105   7.191  1.00 22.29    -0.351 N 
HETATM   18  H2  MK1 B 902      16.737  20.824   6.315  1.00  0.00     0.163 HD
BRANCH  17  19
HETATM   19  C4  MK1 B 902      17.177  21.165   8.313  1.00 23.47     0.022 C 
HETATM   20  C7  MK1 B 902      16.676  20.448   9.490  1.00 22.75     0.037 C 
HETATM   21  C5  MK1 B 902      17.241  22.638   8.755  1.00 27.66     0.037 C 
HETATM   22  C6  MK1 B 902      18.449  20.688   8.039  1.00 21.71     0.037 C 
ENDBRANCH  17  19
ENDBRANCH   3  15
BRANCH   4  23
HETATM   23  C10 MK1 B 902      13.994  23.507   5.051  1.00 20.86     0.149 C 
BRANCH  23  24
HETATM   24  C11 MK1 B 902      12.499  23.441   5.367  1.00 21.68     0.136 C 
BRANCH  24  25
HETATM   25  O2  MK1 B 902      12.620  23.953   6.660  1.00 15.87    -0.394 OA
HETATM   26  H2  MK1 B 902      13.348  24.564   6.666  1.00  0.00     0.210 HD
ENDBRANCH  24  25
BRANCH  24  27
HETATM   27  C12 MK1 B 902      11.422  24.259   4.630  1.00 21.49     0.047 C 
BRANCH  27  28
HETATM   28  C13 MK1 B 902       9.970  24.269   5.129  1.00 26.89     0.084 C 
BRANCH  28  29
HETATM   29  C21 MK1 B 902       9.030  23.548   4.170  1.00 29.35     0.222 C 
HETATM   30  N4  MK1 B 902       7.855  24.138   3.972  1.00 31.19    -0.350 N 
HETATM   31  H4  MK1 B 902       7.549  24.868   4.616  1.00  0.00     0.163 HD
HETATM   32  O3  MK1 B 902       9.411  22.545   3.547  1.00 32.66    -0.273 OA
BRANCH  30  33
HETATM   33  C22 MK1 B 902       6.995  23.769   2.861  1.00 29.22     0.147 C 
HETATM   34  C30 MK1 B 902       5.492  23.511   3.145  1.00 31.86    -0.027 A 
HETATM   35  C29 MK1 B 902       4.825  22.932   4.178  1.00 27.70     0.010 A 
HETATM   36  C25 MK1 B 902       4.604  24.041   1.983  1.00 31.29    -0.047 A 
HETATM   37  C28 MK1 B 902       3.440  22.831   4.186  1.00 29.01     0.001 A 
HETATM   38  C27 MK1 B 902       2.649  23.326   3.139  1.00 28.00     0.001 A 
HETATM   39  C26 MK1 B 902       3.233  23.937   2.024  1.00 32.00     0.008 A 
HETATM   40  C24 MK1 B 902       5.645  24.622   1.059  1.00 32.05     0.073 C 
HETATM   41  C23 MK1 B 902       6.944  24.852   1.796  1.00 28.82     0.149 C 
BRANCH  41  42
HETATM   42  O4  MK1 B 902       7.048  26.135   2.394  1.00 28.32    -0.393 OA
HETATM   43  H4  MK1 B 902       7.397  26.762   1.771  1.00  0.00     0.210 HD
ENDBRANCH  41  42
ENDBRANCH  30  33
ENDBRANCH  28  29
BRANCH  28  44
HETATM   44  C14 MK1 B 902       9.444  25.696   5.362  1.00 28.67     0.052 C 
BRANCH  44  45
HETATM   45  C15 MK1 B 902       9.477  26.086   6.794  1.00 26.89    -0.057 A 
HETATM   46  C16 MK1 B 902       9.446  27.418   7.212  1.00 29.22     0.007 A 
HETATM   47  C17 MK1 B 902       9.517  27.737   8.560  1.00 29.22     0.001 A 
HETATM   48  C18 MK1 B 902       9.621  26.703   9.492  1.00 30.97     0.000 A 
HETATM   49  C19 MK1 B 902       9.645  25.365   9.078  1.00 29.25     0.001 A 
HETATM   50  C20 MK1 B 902       9.572  25.060   7.719  1.00 29.96     0.007 A 
ENDBRANCH  44  45
ENDBRANCH  28  44
ENDBRANCH  27  28
ENDBRANCH  24  27
ENDBRANCH  23  24
ENDBRANCH   4  23
TORSDOF 14
ENDMDL
MODEL 12
REMARK VINA RESULT:      -9.6      2.244      5.748
REMARK  14 active torsions:
REMARK  status: ('A' for Active; 'I' for Inactive)
REMARK    1  A    between atoms: N1_1  and  C31_43 
REMARK    2  A    between atoms: C2_3  and  C3_4 
REMARK       I    between atoms: C3_4  and  N2_6 
REMARK    3  A    between atoms: N2_6  and  C4_8 
REMARK    4  A    between atoms: N3_12  and  C10_15 
REMARK    5  A    between atoms: C10_15  and  C11_16 
REMARK    6  A    between atoms: C11_16  and  O2_17 
REMARK    7  A    between atoms: C11_16  and  C12_19 
REMARK    8  A    between atoms: C12_19  and  C13_20 
REMARK    9  A    between atoms: C13_20  and  C21_28 
REMARK   10  A    between atoms: C13_20  and  C14_21 
REMARK   11  A    between atoms: C14_21  and  C15_22 
REMARK       I    between atoms: C21_28  and  N4_30 
REMARK   12  A    between atoms: N4_30  and  C22_32 
REMARK   13  A    between atoms: C23_33  and  O4_34 
REMARK   14  A    between atoms: C31_43  and  C32_44 
ROOT
HETATM    1  N1  MK1 B 902      10.570  26.015   7.977  1.00 28.25     0.096 N 
HETATM    2  C1  MK1 B 902      10.487  25.206   6.731  1.00 30.30     0.307 C 
HETATM    3  C2  MK1 B 902      11.025  23.790   6.673  1.00 27.27     0.200 C 
HETATM    4  N3  MK1 B 902      12.468  23.997   7.047  1.00 28.91    -0.395 N 
HETATM    5  C8  MK1 B 902      12.799  24.954   8.132  1.00 26.24     0.148 C 
HETATM    6  C9  MK1 B 902      11.922  26.181   8.275  1.00 27.47     0.292 C 
ENDROOT
BRANCH   1   7
HETATM    7  C31 MK1 B 902       9.772  27.246   8.033  1.00 36.25     0.312 C 
BRANCH   7   8
HETATM    8  C32 MK1 B 902       8.408  27.346   7.340  1.00 42.75    -0.015 A 
HETATM    9  C36 MK1 B 902       7.286  27.077   8.094  1.00 44.71     0.011 A 
HETATM   10  C35 MK1 B 902       6.046  27.146   7.465  1.00 49.34     0.018 A 
HETATM   11  C34 MK1 B 902       5.970  27.478   6.109  1.00 50.60     0.087 A 
HETATM   12  N5  MK1 B 902       7.051  27.764   5.277  1.00 51.38    -0.375 N 
HETATM   13  C33 MK1 B 902       8.261  27.673   5.984  1.00 47.41     0.096 A 
HETATM   14  H5  MK1 B 902       6.974  28.005   4.289  1.00  0.00     0.164 HD
ENDBRANCH   7   8
ENDBRANCH   1   7
BRANCH   3  15
HETATM   15  C3  MK1 B 902      10.847  23.272   5.272  1.00 28.85     0.242 C 
HETATM   16  O1  MK1 B 902      11.043  22.090   5.020  1.00 29.59    -0.271 OA
HETATM   17  N2  MK1 B 902      10.490  24.146   4.352  1.00 22.29    -0.351 N 
HETATM   18  H2  MK1 B 902      10.425  25.110   4.679  1.00  0.00     0.163 HD
BRANCH  17  19
HETATM   19  C4  MK1 B 902      10.179  23.960   2.971  1.00 23.47     0.022 C 
HETATM   20  C7  MK1 B 902      11.362  23.920   2.104  1.00 22.75     0.037 C 
HETATM   21  C5  MK1 B 902       9.405  25.210   2.512  1.00 27.66     0.037 C 
HETATM   22  C6  MK1 B 902       9.438  22.816   2.724  1.00 21.71     0.037 C 
ENDBRANCH  17  19
ENDBRANCH   3  15
BRANCH   4  23
HETATM   23  C10 MK1 B 902      13.300  22.818   7.185  1.00 20.86     0.149 C 
BRANCH  23  24
HETATM   24  C11 MK1 B 902      14.322  22.638   6.062  1.00 21.68     0.136 C 
BRANCH  24  25
HETATM   25  O2  MK1 B 902      14.480  24.003   5.815  1.00 15.87    -0.394 OA
HETATM   26  H2  MK1 B 902      14.899  24.102   4.968  1.00  0.00     0.210 HD
ENDBRANCH  24  25
BRANCH  24  27
HETATM   27  C12 MK1 B 902      15.722  22.025   6.257  1.00 21.49     0.047 C 
BRANCH  27  28
HETATM   28  C13 MK1 B 902      15.884  20.624   6.863  1.00 26.89     0.084 C 
BRANCH  28  29
HETATM   29  C21 MK1 B 902      16.137  20.676   8.365  1.00 29.35     0.222 C 
HETATM   30  N4  MK1 B 902      16.487  19.520   8.924  1.00 31.19    -0.350 N 
HETATM   31  H4  MK1 B 902      16.339  18.653   8.409  1.00  0.00     0.163 HD
HETATM   32  O3  MK1 B 902      16.122  21.757   8.971  1.00 32.66    -0.273 OA
BRANCH  30  33
HETATM   33  C22 MK1 B 902      17.075  19.464  10.252  1.00 29.22     0.147 C 
HETATM   34  C30 MK1 B 902      17.073  18.107  11.002  1.00 31.86    -0.027 A 
HETATM   35  C29 MK1 B 902      16.177  17.088  11.085  1.00 27.70     0.010 A 
HETATM   36  C25 MK1 B 902      18.387  17.914  11.813  1.00 31.29    -0.047 A 
HETATM   37  C28 MK1 B 902      16.431  15.953  11.842  1.00 29.01     0.001 A 
HETATM   38  C27 MK1 B 902      17.626  15.784  12.558  1.00 28.00     0.001 A 
HETATM   39  C26 MK1 B 902      18.615  16.773  12.546  1.00 32.00     0.008 A 
HETATM   40  C24 MK1 B 902      19.129  19.184  11.476  1.00 32.05     0.073 C 
HETATM   41  C23 MK1 B 902      18.550  19.827  10.237  1.00 28.82     0.149 C 
BRANCH  41  42
HETATM   42  O4  MK1 B 902      19.152  19.390   9.027  1.00 28.32    -0.393 OA
HETATM   43  H4  MK1 B 902      20.077  19.610   9.022  1.00  0.00     0.210 HD
ENDBRANCH  41  42
ENDBRANCH  30  33
ENDBRANCH  28  29
BRANCH  28  44
HETATM   44  C14 MK1 B 902      17.017  19.827   6.194  1.00 28.67     0.052 C 
BRANCH  44  45
HETATM   45  C15 MK1 B 902      16.573  19.139   4.956  1.00 26.89    -0.057 A 
HETATM   46  C16 MK1 B 902      15.295  18.595   4.814  1.00 29.22     0.007 A 
HETATM   47  C17 MK1 B 902      14.936  17.928   3.653  1.00 29.22     0.001 A 
HETATM   48  C18 MK1 B 902      15.876  17.810   2.627  1.00 30.97     0.000 A 
HETATM   49  C19 MK1 B 902      17.156  18.361   2.761  1.00 29.25     0.001 A 
HETATM   50  C20 MK1 B 902      17.503  19.029   3.936  1.00 29.96     0.007 A 
ENDBRANCH  44  45
ENDBRANCH  28  44
ENDBRANCH  27  28
ENDBRANCH  24  27
ENDBRANCH  23  24
ENDBRANCH   4  23
TORSDOF 14
ENDMDL
MODEL 13
REMARK VINA RESULT:      -9.5      1.922      3.223
REMARK  14 active torsions:
REMARK  status: ('A' for Active; 'I' for Inactive)
REMARK    1  A    between atoms: N1_1  and  C31_43 
REMARK    2  A    between atoms: C2_3  and  C3_4 
REMARK       I    between atoms: C3_4  and  N2_6 
REMARK    3  A    between atoms: N2_6  and  C4_8 
REMARK    4  A    between atoms: N3_12  and  C10_15 
REMARK    5  A    between atoms: C10_15  and  C11_16 
REMARK    6  A    between atoms: C11_16  and  O2_17 
REMARK    7  A    between atoms: C11_16  and  C12_19 
REMARK    8  A    between atoms: C12_19  and  C13_20 
REMARK    9  A    between atoms: C13_20  and  C21_28 
REMARK   10  A    between atoms: C13_20  and  C14_21 
REMARK   11  A    between atoms: C14_21  and  C15_22 
REMARK       I    between atoms: C21_28  and  N4_30 
REMARK   12  A    between atoms: N4_30  and  C22_32 
REMARK   13  A    between atoms: C23_33  and  O4_34 
REMARK   14  A    between atoms: C31_43  and  C32_44 
ROOT
HETATM    1  N1  MK1 B 902       6.627  24.937   3.294  1.00 28.25     0.096 N 
HETATM    2  C1  MK1 B 902       7.243  25.613   4.468  1.00 30.30     0.307 C 
HETATM    3  C2  MK1 B 902       8.726  25.923   4.510  1.00 27.27     0.200 C 
HETATM    4  N3  MK1 B 902       9.329  24.555   4.341  1.00 28.91    -0.395 N 
HETATM    5  C8  MK1 B 902       8.717  23.617   3.366  1.00 26.24     0.148 C 
HETATM    6  C9  MK1 B 902       7.214  23.677   3.185  1.00 27.47     0.292 C 
ENDROOT
BRANCH   1   7
HETATM    7  C31 MK1 B 902       5.162  24.942   3.208  1.00 36.25     0.312 C 
BRANCH   7   8
HETATM    8  C32 MK1 B 902       4.306  25.733   4.205  1.00 42.75    -0.015 A 
HETATM    9  C36 MK1 B 902       3.825  25.062   5.309  1.00 44.71     0.011 A 
HETATM   10  C35 MK1 B 902       3.031  25.770   6.207  1.00 49.34     0.018 A 
HETATM   11  C34 MK1 B 902       2.743  27.117   5.971  1.00 50.60     0.087 A 
HETATM   12  N5  MK1 B 902       3.188  27.868   4.884  1.00 51.38    -0.375 N 
HETATM   13  C33 MK1 B 902       3.980  27.085   4.028  1.00 47.41     0.096 A 
HETATM   14  H5  MK1 B 902       2.967  28.852   4.731  1.00  0.00     0.164 HD
ENDBRANCH   7   8
ENDBRANCH   1   7
BRANCH   3  15
HETATM   15  C3  MK1 B 902       9.042  26.546   5.843  1.00 28.85     0.242 C 
HETATM   16  O1  MK1 B 902       9.297  27.741   5.923  1.00 29.59    -0.271 OA
HETATM   17  N2  MK1 B 902       9.042  25.746   6.892  1.00 22.29    -0.351 N 
HETATM   18  H2  MK1 B 902       8.881  24.761   6.679  1.00  0.00     0.163 HD
BRANCH  17  19
HETATM   19  C4  MK1 B 902       9.232  26.038   8.277  1.00 23.47     0.022 C 
HETATM   20  C7  MK1 B 902       8.376  27.121   8.770  1.00 22.75     0.037 C 
HETATM   21  C5  MK1 B 902      10.666  26.578   8.430  1.00 27.66     0.037 C 
HETATM   22  C6  MK1 B 902       9.040  24.940   9.100  1.00 21.71     0.037 C 
ENDBRANCH  17  19
ENDBRANCH   3  15
BRANCH   4  23
HETATM   23  C10 MK1 B 902      10.772  24.467   4.241  1.00 20.86     0.149 C 
BRANCH  23  24
HETATM   24  C11 MK1 B 902      11.267  23.451   3.210  1.00 21.68     0.136 C 
BRANCH  24  25
HETATM   25  O2  MK1 B 902      11.898  24.394   2.397  1.00 15.87    -0.394 OA
HETATM   26  H2  MK1 B 902      12.027  25.184   2.909  1.00  0.00     0.210 HD
ENDBRANCH  24  25
BRANCH  24  27
HETATM   27  C12 MK1 B 902      12.280  22.333   3.516  1.00 21.49     0.047 C 
BRANCH  27  28
HETATM   28  C13 MK1 B 902      13.315  22.501   4.638  1.00 26.89     0.084 C 
BRANCH  28  29
HETATM   29  C21 MK1 B 902      14.688  21.977   4.234  1.00 29.35     0.222 C 
HETATM   30  N4  MK1 B 902      14.737  20.683   3.930  1.00 31.19    -0.350 N 
HETATM   31  H4  MK1 B 902      13.963  20.078   4.201  1.00  0.00     0.163 HD
HETATM   32  O3  MK1 B 902      15.645  22.754   4.097  1.00 32.66    -0.273 OA
BRANCH  30  33
HETATM   33  C22 MK1 B 902      15.869  20.110   3.221  1.00 29.22     0.147 C 
HETATM   34  C30 MK1 B 902      16.889  19.261   4.024  1.00 31.86    -0.027 A 
HETATM   35  C29 MK1 B 902      17.407  19.365   5.276  1.00 27.70     0.010 A 
HETATM   36  C25 MK1 B 902      17.395  18.053   3.185  1.00 31.29    -0.047 A 
HETATM   37  C28 MK1 B 902      18.324  18.444   5.765  1.00 29.01     0.001 A 
HETATM   38  C27 MK1 B 902      18.762  17.350   5.003  1.00 28.00     0.001 A 
HETATM   39  C26 MK1 B 902      18.296  17.150   3.700  1.00 32.00     0.008 A 
HETATM   40  C24 MK1 B 902      16.615  18.235   1.907  1.00 32.05     0.073 C 
HETATM   41  C23 MK1 B 902      15.431  19.147   2.131  1.00 28.82     0.149 C 
BRANCH  41  42
HETATM   42  O4  MK1 B 902      14.246  18.468   2.522  1.00 28.32    -0.393 OA
HETATM   43  H4  MK1 B 902      14.432  17.865   3.233  1.00  0.00     0.210 HD
ENDBRANCH  41  42
ENDBRANCH  30  33
ENDBRANCH  28  29
BRANCH  28  44
HETATM   44  C14 MK1 B 902      12.881  21.807   5.940  1.00 28.67     0.052 C 
BRANCH  44  45
HETATM   45  C15 MK1 B 902      13.804  22.087   7.069  1.00 26.89    -0.057 A 
HETATM   46  C16 MK1 B 902      14.609  21.103   7.645  1.00 29.22     0.007 A 
HETATM   47  C17 MK1 B 902      15.430  21.402   8.722  1.00 29.22     0.001 A 
HETATM   48  C18 MK1 B 902      15.435  22.706   9.221  1.00 30.97     0.000 A 
HETATM   49  C19 MK1 B 902      14.635  23.698   8.642  1.00 29.25     0.001 A 
HETATM   50  C20 MK1 B 902      13.815  23.382   7.559  1.00 29.96     0.007 A 
ENDBRANCH  44  45
ENDBRANCH  28  44
ENDBRANCH  27  28
ENDBRANCH  24  27
ENDBRANCH  23  24
ENDBRANCH   4  23
TORSDOF 14
ENDMDL
MODEL 14
REMARK VINA RESULT:      -9.4      2.431     11.338
REMARK  14 active torsions:
REMARK  status: ('A' for Active; 'I' for Inactive)
REMARK    1  A    between atoms: N1_1  and  C31_43 
REMARK    2  A    between atoms: C2_3  and  C3_4 
REMARK       I    between atoms: C3_4  and  N2_6 
REMARK    3  A    between atoms: N2_6  and  C4_8 
REMARK    4  A    between atoms: N3_12  and  C10_15 
REMARK    5  A    between atoms: C10_15  and  C11_16 
REMARK    6  A    between atoms: C11_16  and  O2_17 
REMARK    7  A    between atoms: C11_16  and  C12_19 
REMARK    8  A    between atoms: C12_19  and  C13_20 
REMARK    9  A    between atoms: C13_20  and  C21_28 
REMARK   10  A    between atoms: C13_20  and  C14_21 
REMARK   11  A    between atoms: C14_21  and  C15_22 
REMARK       I    between atoms: C21_28  and  N4_30 
REMARK   12  A    between atoms: N4_30  and  C22_32 
REMARK   13  A    between atoms: C23_33  and  O4_34 
REMARK   14  A    between atoms: C31_43  and  C32_44 
ROOT
HETATM    1  N1  MK1 B 902      15.090  23.291   7.103  1.00 28.25     0.096 N 
HETATM    2  C1  MK1 B 902      15.277  22.245   6.062  1.00 30.30     0.307 C 
HETATM    3  C2  MK1 B 902      14.552  22.318   4.732  1.00 27.27     0.200 C 
HETATM    4  N3  MK1 B 902      13.113  22.345   5.170  1.00 28.91    -0.395 N 
HETATM    5  C8  MK1 B 902      12.737  23.160   6.352  1.00 26.24     0.148 C 
HETATM    6  C9  MK1 B 902      13.746  23.270   7.477  1.00 27.47     0.292 C 
ENDROOT
BRANCH   1   7
HETATM    7  C31 MK1 B 902      16.039  23.301   8.223  1.00 36.25     0.312 C 
BRANCH   7   8
HETATM    8  C32 MK1 B 902      16.627  22.000   8.784  1.00 42.75    -0.015 A 
HETATM    9  C36 MK1 B 902      15.807  21.211   9.562  1.00 44.71     0.011 A 
HETATM   10  C35 MK1 B 902      16.341  20.038  10.090  1.00 49.34     0.018 A 
HETATM   11  C34 MK1 B 902      17.672  19.698   9.826  1.00 50.60     0.087 A 
HETATM   12  N5  MK1 B 902      18.565  20.437   9.052  1.00 51.38    -0.375 N 
HETATM   13  C33 MK1 B 902      17.952  21.600   8.558  1.00 47.41     0.096 A 
HETATM   14  H5  MK1 B 902      19.533  20.171   8.871  1.00  0.00     0.164 HD
ENDBRANCH   7   8
ENDBRANCH   1   7
BRANCH   3  15
HETATM   15  C3  MK1 B 902      14.903  21.093   3.933  1.00 28.85     0.242 C 
HETATM   16  O1  MK1 B 902      14.702  21.064   2.726  1.00 29.59    -0.271 OA
HETATM   17  N2  MK1 B 902      15.415  20.074   4.595  1.00 22.29    -0.351 N 
HETATM   18  H2  MK1 B 902      15.468  20.202   5.605  1.00  0.00     0.163 HD
BRANCH  17  19
HETATM   19  C4  MK1 B 902      15.906  18.818   4.123  1.00 23.47     0.022 C 
HETATM   20  C7  MK1 B 902      15.036  17.686   4.457  1.00 22.75     0.037 C 
HETATM   21  C5  MK1 B 902      17.216  18.535   4.881  1.00 27.66     0.037 C 
HETATM   22  C6  MK1 B 902      16.125  18.793   2.755  1.00 21.71     0.037 C 
ENDBRANCH  17  19
ENDBRANCH   3  15
BRANCH   4  23
HETATM   23  C10 MK1 B 902      12.103  22.506   4.143  1.00 20.86     0.149 C 
BRANCH  23  24
HETATM   24  C11 MK1 B 902      11.620  23.946   3.961  1.00 21.68     0.136 C 
BRANCH  24  25
HETATM   25  O2  MK1 B 902      12.049  24.057   2.638  1.00 15.87    -0.394 OA
HETATM   26  H2  MK1 B 902      12.085  24.980   2.417  1.00  0.00     0.210 HD
ENDBRANCH  24  25
BRANCH  24  27
HETATM   27  C12 MK1 B 902      10.142  24.376   4.020  1.00 21.49     0.047 C 
BRANCH  27  28
HETATM   28  C13 MK1 B 902       9.571  25.351   2.982  1.00 26.89     0.084 C 
BRANCH  28  29
HETATM   29  C21 MK1 B 902       8.722  26.441   3.626  1.00 29.35     0.222 C 
HETATM   30  N4  MK1 B 902       8.380  26.223   4.892  1.00 31.19    -0.350 N 
HETATM   31  H4  MK1 B 902       8.479  25.285   5.281  1.00  0.00     0.163 HD
HETATM   32  O3  MK1 B 902       8.484  27.497   3.019  1.00 32.66    -0.273 OA
BRANCH  30  33
HETATM   33  C22 MK1 B 902       7.868  27.289   5.737  1.00 29.22     0.147 C 
HETATM   34  C30 MK1 B 902       6.331  27.454   5.866  1.00 31.86    -0.027 A 
HETATM   35  C29 MK1 B 902       5.302  27.316   4.989  1.00 27.70     0.010 A 
HETATM   36  C25 MK1 B 902       5.931  27.860   7.313  1.00 31.29    -0.047 A 
HETATM   37  C28 MK1 B 902       3.984  27.521   5.373  1.00 29.01     0.001 A 
HETATM   38  C27 MK1 B 902       3.634  27.874   6.685  1.00 28.00     0.001 A 
HETATM   39  C26 MK1 B 902       4.616  28.046   7.668  1.00 32.00     0.008 A 
HETATM   40  C24 MK1 B 902       7.278  27.892   7.992  1.00 32.05     0.073 C 
HETATM   41  C23 MK1 B 902       8.301  27.128   7.184  1.00 28.82     0.149 C 
BRANCH  41  42
HETATM   42  O4  MK1 B 902       8.388  25.751   7.520  1.00 28.32    -0.393 OA
HETATM   43  H4  MK1 B 902       7.531  25.343   7.464  1.00  0.00     0.210 HD
ENDBRANCH  41  42
ENDBRANCH  30  33
ENDBRANCH  28  29
BRANCH  28  44
HETATM   44  C14 MK1 B 902       8.730  24.635   1.910  1.00 28.67     0.052 C 
BRANCH  44  45
HETATM   45  C15 MK1 B 902       7.358  24.320   2.381  1.00 26.89    -0.057 A 
HETATM   46  C16 MK1 B 902       7.100  23.345   3.347  1.00 29.22     0.007 A 
HETATM   47  C17 MK1 B 902       5.798  23.058   3.731  1.00 29.22     0.001 A 
HETATM   48  C18 MK1 B 902       4.750  23.760   3.131  1.00 30.97     0.000 A 
HETATM   49  C19 MK1 B 902       5.005  24.743   2.168  1.00 29.25     0.001 A 
HETATM   50  C20 MK1 B 902       6.320  25.021   1.793  1.00 29.96     0.007 A 
ENDBRANCH  44  45
ENDBRANCH  28  44
ENDBRANCH  27  28
ENDBRANCH  24  27
ENDBRANCH  23  24
ENDBRANCH   4  23
TORSDOF 14
ENDMDL
MODEL 15
REMARK VINA RESULT:      -9.4      2.520      6.165
REMARK  14 active torsions:
REMARK  status: ('A' for Active; 'I' for Inactive)
REMARK    1  A    between atoms: N1_1  and  C31_43 
REMARK    2  A    between atoms: C2_3  and  C3_4 
REMARK       I    between atoms: C3_4  and  N2_6 
REMARK    3  A    between atoms: N2_6  and  C4_8 
REMARK    4  A    between atoms: N3_12  and  C10_15 
REMARK    5  A    between atoms: C10_15  and  C11_16 
REMARK    6  A    between atoms: C11_16  and  O2_17 
REMARK    7  A    between atoms: C11_16  and  C12_19 
REMARK    8  A    between atoms: C12_19  and  C13_20 
REMARK    9  A    between atoms: C13_20  and  C21_28 
REMARK   10  A    between atoms: C13_20  and  C14_21 
REMARK   11  A    between atoms: C14_21  and  C15_22 
REMARK       I    between atoms: C21_28  and  N4_30 
REMARK   12  A    between atoms: N4_30  and  C22_32 
REMARK   13  A    between atoms: C23_33  and  O4_34 
REMARK   14  A    between atoms: C31_43  and  C32_44 
ROOT
HETATM    1  N1  MK1 B 902      11.015  25.416   8.694  1.00 28.25     0.096 N 
HETATM    2  C1  MK1 B 902      10.858  24.643   7.432  1.00 30.30     0.307 C 
HETATM    3  C2  MK1 B 902      11.753  23.463   7.114  1.00 27.27     0.200 C 
HETATM    4  N3  MK1 B 902      13.118  24.095   7.154  1.00 28.91    -0.395 N 
HETATM    5  C8  MK1 B 902      13.419  25.087   8.217  1.00 26.24     0.148 C 
HETATM    6  C9  MK1 B 902      12.288  25.983   8.679  1.00 27.47     0.292 C 
ENDROOT
BRANCH   1   7
HETATM    7  C31 MK1 B 902       9.934  26.341   9.054  1.00 36.25     0.312 C 
BRANCH   7   8
HETATM    8  C32 MK1 B 902       8.909  26.814   8.017  1.00 42.75    -0.015 A 
HETATM    9  C36 MK1 B 902       7.573  26.696   8.337  1.00 44.71     0.011 A 
HETATM   10  C35 MK1 B 902       6.637  27.105   7.391  1.00 49.34     0.018 A 
HETATM   11  C34 MK1 B 902       7.065  27.614   6.162  1.00 50.60     0.087 A 
HETATM   12  N5  MK1 B 902       8.391  27.767   5.760  1.00 51.38    -0.375 N 
HETATM   13  C33 MK1 B 902       9.270  27.334   6.766  1.00 47.41     0.096 A 
HETATM   14  H5  MK1 B 902       8.683  28.142   4.857  1.00  0.00     0.164 HD
ENDBRANCH   7   8
ENDBRANCH   1   7
BRANCH   3  15
HETATM   15  C3  MK1 B 902      11.384  22.941   5.752  1.00 28.85     0.242 C 
HETATM   16  O1  MK1 B 902      11.611  21.775   5.454  1.00 29.59    -0.271 OA
HETATM   17  N2  MK1 B 902      10.830  23.796   4.914  1.00 22.29    -0.351 N 
HETATM   18  H2  MK1 B 902      10.759  24.752   5.263  1.00  0.00     0.163 HD
BRANCH  17  19
HETATM   19  C4  MK1 B 902      10.313  23.597   3.598  1.00 23.47     0.022 C 
HETATM   20  C7  MK1 B 902      11.337  23.667   2.550  1.00 22.75     0.037 C 
HETATM   21  C5  MK1 B 902       9.374  24.781   3.301  1.00 27.66     0.037 C 
HETATM   22  C6  MK1 B 902       9.638  22.396   3.449  1.00 21.71     0.037 C 
ENDBRANCH  17  19
ENDBRANCH   3  15
BRANCH   4  23
HETATM   23  C10 MK1 B 902      14.265  23.226   6.979  1.00 20.86     0.149 C 
BRANCH  23  24
HETATM   24  C11 MK1 B 902      14.565  22.335   8.185  1.00 21.68     0.136 C 
BRANCH  24  25
HETATM   25  O2  MK1 B 902      13.747  21.282   7.770  1.00 15.87    -0.394 OA
HETATM   26  H2  MK1 B 902      14.302  20.611   7.392  1.00  0.00     0.210 HD
ENDBRANCH  24  25
BRANCH  24  27
HETATM   27  C12 MK1 B 902      15.955  21.758   8.509  1.00 21.49     0.047 C 
BRANCH  27  28
HETATM   28  C13 MK1 B 902      16.448  20.476   7.823  1.00 26.89     0.084 C 
BRANCH  28  29
HETATM   29  C21 MK1 B 902      17.534  19.775   8.630  1.00 29.35     0.222 C 
HETATM   30  N4  MK1 B 902      17.098  18.983   9.606  1.00 31.19    -0.350 N 
HETATM   31  H4  MK1 B 902      16.130  19.063   9.917  1.00  0.00     0.163 HD
HETATM   32  O3  MK1 B 902      18.726  19.869   8.300  1.00 32.66    -0.273 OA
BRANCH  30  33
HETATM   33  C22 MK1 B 902      17.967  18.006  10.239  1.00 29.22     0.147 C 
HETATM   34  C30 MK1 B 902      18.738  18.424  11.519  1.00 31.86    -0.027 A 
HETATM   35  C29 MK1 B 902      19.336  19.580  11.911  1.00 27.70     0.010 A 
HETATM   36  C25 MK1 B 902      18.815  17.249  12.535  1.00 31.29    -0.047 A 
HETATM   37  C28 MK1 B 902      19.968  19.693  13.141  1.00 29.01     0.001 A 
HETATM   38  C27 MK1 B 902      20.019  18.630  14.055  1.00 28.00     0.001 A 
HETATM   39  C26 MK1 B 902      19.438  17.394  13.752  1.00 32.00     0.008 A 
HETATM   40  C24 MK1 B 902      18.049  16.176  11.801  1.00 32.05     0.073 C 
HETATM   41  C23 MK1 B 902      17.201  16.780  10.706  1.00 28.82     0.149 C 
BRANCH  41  42
HETATM   42  O4  MK1 B 902      15.895  17.147  11.125  1.00 28.32    -0.393 OA
HETATM   43  H4  MK1 B 902      15.928  17.936  11.654  1.00  0.00     0.210 HD
ENDBRANCH  41  42
ENDBRANCH  30  33
ENDBRANCH  28  29
BRANCH  28  44
HETATM   44  C14 MK1 B 902      16.977  20.742   6.403  1.00 28.67     0.052 C 
BRANCH  44  45
HETATM   45  C15 MK1 B 902      16.668  19.633   5.465  1.00 26.89    -0.057 A 
HETATM   46  C16 MK1 B 902      17.627  19.076   4.616  1.00 29.22     0.007 A 
HETATM   47  C17 MK1 B 902      17.285  18.066   3.729  1.00 29.22     0.001 A 
HETATM   48  C18 MK1 B 902      15.963  17.617   3.699  1.00 30.97     0.000 A 
HETATM   49  C19 MK1 B 902      15.000  18.168   4.554  1.00 29.25     0.001 A 
HETATM   50  C20 MK1 B 902      15.360  19.182   5.441  1.00 29.96     0.007 A 
ENDBRANCH  44  45
ENDBRANCH  28  44
ENDBRANCH  27  28
ENDBRANCH  24  27
ENDBRANCH  23  24
ENDBRANCH   4  23
TORSDOF 14
ENDMDL
MODEL 16
REMARK VINA RESULT:      -9.2      1.936      3.784
REMARK  14 active torsions:
REMARK  status: ('A' for Active; 'I' for Inactive)
REMARK    1  A    between atoms: N1_1  and  C31_43 
REMARK    2  A    between atoms: C2_3  and  C3_4 
REMARK       I    between atoms: C3_4  and  N2_6 
REMARK    3  A    between atoms: N2_6  and  C4_8 
REMARK    4  A    between atoms: N3_12  and  C10_15 
REMARK    5  A    between atoms: C10_15  and  C11_16 
REMARK    6  A    between atoms: C11_16  and  O2_17 
REMARK    7  A    between atoms: C11_16  and  C12_19 
REMARK    8  A    between atoms: C12_19  and  C13_20 
REMARK    9  A    between atoms: C13_20  and  C21_28 
REMARK   10  A    between atoms: C13_20  and  C14_21 
REMARK   11  A    between atoms: C14_21  and  C15_22 
REMARK       I    between atoms: C21_28  and  N4_30 
REMARK   12  A    between atoms: N4_30  and  C22_32 
REMARK   13  A    between atoms: C23_33  and  O4_34 
REMARK   14  A    between atoms: C31_43  and  C32_44 
ROOT
HETATM    1  N1  MK1 B 902      10.441  25.529   8.608  1.00 28.25     0.096 N 
HETATM    2  C1  MK1 B 902      10.346  24.741   7.349  1.00 30.30     0.307 C 
HETATM    3  C2  MK1 B 902      11.326  23.627   7.040  1.00 27.27     0.200 C 
HETATM    4  N3  MK1 B 902      12.641  24.358   7.082  1.00 28.91    -0.395 N 
HETATM    5  C8  MK1 B 902      12.865  25.374   8.140  1.00 26.24     0.148 C 
HETATM    6  C9  MK1 B 902      11.670  26.188   8.594  1.00 27.47     0.292 C 
ENDROOT
BRANCH   1   7
HETATM    7  C31 MK1 B 902       9.294  26.375   8.959  1.00 36.25     0.312 C 
BRANCH   7   8
HETATM    8  C32 MK1 B 902       8.330  26.898   7.888  1.00 42.75    -0.015 A 
HETATM    9  C36 MK1 B 902       6.979  26.824   8.152  1.00 44.71     0.011 A 
HETATM   10  C35 MK1 B 902       6.097  27.280   7.175  1.00 49.34     0.018 A 
HETATM   11  C34 MK1 B 902       6.594  27.789   5.971  1.00 50.60     0.087 A 
HETATM   12  N5  MK1 B 902       7.940  27.898   5.626  1.00 51.38    -0.375 N 
HETATM   13  C33 MK1 B 902       8.761  27.420   6.660  1.00 47.41     0.096 A 
HETATM   14  H5  MK1 B 902       8.282  28.274   4.741  1.00  0.00     0.164 HD
ENDBRANCH   7   8
ENDBRANCH   1   7
BRANCH   3  15
HETATM   15  C3  MK1 B 902      11.001  23.073   5.680  1.00 28.85     0.242 C 
HETATM   16  O1  MK1 B 902      11.338  21.935   5.378  1.00 29.59    -0.271 OA
HETATM   17  N2  MK1 B 902      10.362  23.871   4.847  1.00 22.29    -0.351 N 
HETATM   18  H2  MK1 B 902      10.200  24.815   5.196  1.00  0.00     0.163 HD
BRANCH  17  19
HETATM   19  C4  MK1 B 902       9.859  23.624   3.533  1.00 23.47     0.022 C 
HETATM   20  C7  MK1 B 902      10.892  23.208   2.579  1.00 22.75     0.037 C 
HETATM   21  C5  MK1 B 902       9.348  24.970   2.987  1.00 27.66     0.037 C 
HETATM   22  C6  MK1 B 902       8.849  22.676   3.501  1.00 21.71     0.037 C 
ENDBRANCH  17  19
ENDBRANCH   3  15
BRANCH   4  23
HETATM   23  C10 MK1 B 902      13.849  23.574   6.915  1.00 20.86     0.149 C 
BRANCH  23  24
HETATM   24  C11 MK1 B 902      14.712  23.480   8.174  1.00 21.68     0.136 C 
BRANCH  24  25
HETATM   25  O2  MK1 B 902      14.003  22.417   8.735  1.00 15.87    -0.394 OA
HETATM   26  H2  MK1 B 902      13.926  21.735   8.078  1.00  0.00     0.210 HD
ENDBRANCH  24  25
BRANCH  24  27
HETATM   27  C12 MK1 B 902      16.206  23.106   8.171  1.00 21.49     0.047 C 
BRANCH  27  28
HETATM   28  C13 MK1 B 902      16.649  21.654   8.396  1.00 26.89     0.084 C 
BRANCH  28  29
HETATM   29  C21 MK1 B 902      16.164  20.729   7.286  1.00 29.35     0.222 C 
HETATM   30  N4  MK1 B 902      17.114  20.254   6.484  1.00 31.19    -0.350 N 
HETATM   31  H4  MK1 B 902      18.034  20.694   6.487  1.00  0.00     0.163 HD
HETATM   32  O3  MK1 B 902      14.977  20.373   7.234  1.00 32.66    -0.273 OA
BRANCH  30  33
HETATM   33  C22 MK1 B 902      16.872  19.124   5.604  1.00 29.22     0.147 C 
HETATM   34  C30 MK1 B 902      16.189  19.388   4.235  1.00 31.86    -0.027 A 
HETATM   35  C29 MK1 B 902      15.203  20.231   3.833  1.00 27.70     0.010 A 
HETATM   36  C25 MK1 B 902      16.791  18.479   3.126  1.00 31.29    -0.047 A 
HETATM   37  C28 MK1 B 902      14.771  20.273   2.514  1.00 29.01     0.001 A 
HETATM   38  C27 MK1 B 902      15.331  19.458   1.519  1.00 28.00     0.001 A 
HETATM   39  C26 MK1 B 902      16.351  18.550   1.825  1.00 32.00     0.008 A 
HETATM   40  C24 MK1 B 902      17.839  17.721   3.902  1.00 32.05     0.073 C 
HETATM   41  C23 MK1 B 902      18.162  18.433   5.196  1.00 28.82     0.149 C 
BRANCH  41  42
HETATM   42  O4  MK1 B 902      19.214  19.380   5.086  1.00 28.32    -0.393 OA
HETATM   43  H4  MK1 B 902      19.933  19.016   4.582  1.00  0.00     0.210 HD
ENDBRANCH  41  42
ENDBRANCH  30  33
ENDBRANCH  28  29
BRANCH  28  44
HETATM   44  C14 MK1 B 902      16.169  21.101   9.749  1.00 28.67     0.052 C 
BRANCH  44  45
HETATM   45  C15 MK1 B 902      16.989  19.956  10.218  1.00 26.89    -0.057 A 
HETATM   46  C16 MK1 B 902      18.382  20.009  10.293  1.00 29.22     0.007 A 
HETATM   47  C17 MK1 B 902      19.111  18.902  10.703  1.00 29.22     0.001 A 
HETATM   48  C18 MK1 B 902      18.425  17.732  11.036  1.00 30.97     0.000 A 
HETATM   49  C19 MK1 B 902      17.028  17.676  10.970  1.00 29.25     0.001 A 
HETATM   50  C20 MK1 B 902      16.309  18.798  10.557  1.00 29.96     0.007 A 
ENDBRANCH  44  45
ENDBRANCH  28  44
ENDBRANCH  27  28
ENDBRANCH  24  27
ENDBRANCH  23  24
ENDBRANCH   4  23
TORSDOF 14
ENDMDL
MODEL 17
REMARK VINA RESULT:      -9.2      4.321      8.256
REMARK  14 active torsions:
REMARK  status: ('A' for Active; 'I' for Inactive)
REMARK    1  A    between atoms: N1_1  and  C31_43 
REMARK    2  A    between atoms: C2_3  and  C3_4 
REMARK       I    between atoms: C3_4  and  N2_6 
REMARK    3  A    between atoms: N2_6  and  C4_8 
REMARK    4  A    between atoms: N3_12  and  C10_15 
REMARK    5  A    between atoms: C10_15  and  C11_16 
REMARK    6  A    between atoms: C11_16  and  O2_17 
REMARK    7  A    between atoms: C11_16  and  C12_19 
REMARK    8  A    between atoms: C12_19  and  C13_20 
REMARK    9  A    between atoms: C13_20  and  C21_28 
REMARK   10  A    between atoms: C13_20  and  C14_21 
REMARK   11  A    between atoms: C14_21  and  C15_22 
REMARK       I    between atoms: C21_28  and  N4_30 
REMARK   12  A    between atoms: N4_30  and  C22_32 
REMARK   13  A    between atoms: C23_33  and  O4_34 
REMARK   14  A    between atoms: C31_43  and  C32_44 
ROOT
HETATM    1  N1  MK1 B 902      15.020  22.640   7.915  1.00 28.25     0.096 N 
HETATM    2  C1  MK1 B 902      15.546  21.690   6.898  1.00 30.30     0.307 C 
HETATM    3  C2  MK1 B 902      16.413  20.512   7.294  1.00 27.27     0.200 C 
HETATM    4  N3  MK1 B 902      17.560  21.196   7.987  1.00 28.91    -0.395 N 
HETATM    5  C8  MK1 B 902      17.274  22.340   8.888  1.00 26.24     0.148 C 
HETATM    6  C9  MK1 B 902      16.118  23.249   8.522  1.00 27.47     0.292 C 
ENDROOT
BRANCH   1   7
HETATM    7  C31 MK1 B 902      13.963  23.565   7.488  1.00 36.25     0.312 C 
BRANCH   7   8
HETATM    8  C32 MK1 B 902      13.194  23.349   6.180  1.00 42.75    -0.015 A 
HETATM    9  C36 MK1 B 902      12.082  22.534   6.219  1.00 44.71     0.011 A 
HETATM   10  C35 MK1 B 902      11.390  22.318   5.030  1.00 49.34     0.018 A 
HETATM   11  C34 MK1 B 902      11.833  22.918   3.847  1.00 50.60     0.087 A 
HETATM   12  N5  MK1 B 902      12.943  23.751   3.721  1.00 51.38    -0.375 N 
HETATM   13  C33 MK1 B 902      13.583  23.920   4.960  1.00 47.41     0.096 A 
HETATM   14  H5  MK1 B 902      13.249  24.181   2.848  1.00  0.00     0.164 HD
ENDBRANCH   7   8
ENDBRANCH   1   7
BRANCH   3  15
HETATM   15  C3  MK1 B 902      16.828  19.787   6.042  1.00 28.85     0.242 C 
HETATM   16  O1  MK1 B 902      17.865  20.091   5.467  1.00 29.59    -0.271 OA
HETATM   17  N2  MK1 B 902      16.022  18.839   5.604  1.00 22.29    -0.351 N 
HETATM   18  H2  MK1 B 902      15.158  18.732   6.137  1.00  0.00     0.163 HD
BRANCH  17  19
HETATM   19  C4  MK1 B 902      16.165  17.939   4.505  1.00 23.47     0.022 C 
HETATM   20  C7  MK1 B 902      16.260  18.612   3.206  1.00 22.75     0.037 C 
HETATM   21  C5  MK1 B 902      14.864  17.121   4.423  1.00 27.66     0.037 C 
HETATM   22  C6  MK1 B 902      17.259  17.097   4.624  1.00 21.71     0.037 C 
ENDBRANCH  17  19
ENDBRANCH   3  15
BRANCH   4  23
HETATM   23  C10 MK1 B 902      18.573  20.356   8.594  1.00 20.86     0.149 C 
BRANCH  23  24
HETATM   24  C11 MK1 B 902      18.014  19.163   9.371  1.00 21.68     0.136 C 
BRANCH  24  25
HETATM   25  O2  MK1 B 902      18.648  18.196   8.590  1.00 15.87    -0.394 OA
HETATM   26  H2  MK1 B 902      18.966  18.618   7.801  1.00  0.00     0.210 HD
ENDBRANCH  24  25
BRANCH  24  27
HETATM   27  C12 MK1 B 902      18.333  18.867  10.848  1.00 21.49     0.047 C 
BRANCH  27  28
HETATM   28  C13 MK1 B 902      18.286  17.429  11.385  1.00 26.89     0.084 C 
BRANCH  28  29
HETATM   29  C21 MK1 B 902      19.382  16.557  10.784  1.00 29.35     0.222 C 
HETATM   30  N4  MK1 B 902      18.970  15.412  10.247  1.00 31.19    -0.350 N 
HETATM   31  H4  MK1 B 902      18.035  15.069  10.465  1.00  0.00     0.163 HD
HETATM   32  O3  MK1 B 902      20.550  16.970  10.714  1.00 32.66    -0.273 OA
BRANCH  30  33
HETATM   33  C22 MK1 B 902      19.820  14.639   9.358  1.00 29.22     0.147 C 
HETATM   34  C30 MK1 B 902      19.675  13.094   9.357  1.00 31.86    -0.027 A 
HETATM   35  C29 MK1 B 902      19.441  12.180  10.335  1.00 27.70     0.010 A 
HETATM   36  C25 MK1 B 902      19.835  12.518   7.921  1.00 31.29    -0.047 A 
HETATM   37  C28 MK1 B 902      19.350  10.823  10.057  1.00 29.01     0.001 A 
HETATM   38  C27 MK1 B 902      19.482  10.316   8.756  1.00 28.00     0.001 A 
HETATM   39  C26 MK1 B 902      19.728  11.170   7.675  1.00 32.00     0.008 A 
HETATM   40  C24 MK1 B 902      20.048  13.779   7.120  1.00 32.05     0.073 C 
HETATM   41  C23 MK1 B 902      19.585  14.989   7.898  1.00 28.82     0.149 C 
BRANCH  41  42
HETATM   42  O4  MK1 B 902      18.221  15.322   7.686  1.00 28.32    -0.393 OA
HETATM   43  H4  MK1 B 902      18.060  16.225   7.937  1.00  0.00     0.210 HD
ENDBRANCH  41  42
ENDBRANCH  30  33
ENDBRANCH  28  29
BRANCH  28  44
HETATM   44  C14 MK1 B 902      16.924  16.758  11.135  1.00 28.67     0.052 C 
BRANCH  44  45
HETATM   45  C15 MK1 B 902      16.369  16.128  12.359  1.00 26.89    -0.057 A 
HETATM   46  C16 MK1 B 902      17.176  15.669  13.402  1.00 29.22     0.007 A 
HETATM   47  C17 MK1 B 902      16.616  15.054  14.511  1.00 29.22     0.001 A 
HETATM   48  C18 MK1 B 902      15.229  14.899  14.566  1.00 30.97     0.000 A 
HETATM   49  C19 MK1 B 902      14.415  15.365  13.526  1.00 29.25     0.001 A 
HETATM   50  C20 MK1 B 902      14.993  15.983  12.418  1.00 29.96     0.007 A 
ENDBRANCH  44  45
ENDBRANCH  28  44
ENDBRANCH  27  28
ENDBRANCH  24  27
ENDBRANCH  23  24
ENDBRANCH   4  23
TORSDOF 14
ENDMDL
MODEL 18
REMARK VINA RESULT:      -8.9      2.935     11.028
REMARK  14 active torsions:
REMARK  status: ('A' for Active; 'I' for Inactive)
REMARK    1  A    between atoms: N1_1  and  C31_43 
REMARK    2  A    between atoms: C2_3  and  C3_4 
REMARK       I    between atoms: C3_4  and  N2_6 
REMARK    3  A    between atoms: N2_6  and  C4_8 
REMARK    4  A    between atoms: N3_12  and  C10_15 
REMARK    5  A    between atoms: C10_15  and  C11_16 
REMARK    6  A    between atoms: C11_16  and  O2_17 
REMARK    7  A    between atoms: C11_16  and  C12_19 
REMARK    8  A    between atoms: C12_19  and  C13_20 
REMARK    9  A    between atoms: C13_20  and  C21_28 
REMARK   10  A    between atoms: C13_20  and  C14_21 
REMARK   11  A    between atoms: C14_21  and  C15_22 
REMARK       I    between atoms: C21_28  and  N4_30 
REMARK   12  A    between atoms: N4_30  and  C22_32 
REMARK   13  A    between atoms: C23_33  and  O4_34 
REMARK   14  A    between atoms: C31_43  and  C32_44 
ROOT
HETATM    1  N1  MK1 B 902      18.286  17.662   5.566  1.00 28.25     0.096 N 
HETATM    2  C1  MK1 B 902      18.659  17.635   7.006  1.00 30.30     0.307 C 
HETATM    3  C2  MK1 B 902      18.005  18.567   8.008  1.00 27.27     0.200 C 
HETATM    4  N3  MK1 B 902      18.329  19.916   7.426  1.00 28.91    -0.395 N 
HETATM    5  C8  MK1 B 902      18.242  20.104   5.956  1.00 26.24     0.148 C 
HETATM    6  C9  MK1 B 902      18.610  18.927   5.076  1.00 27.47     0.292 C 
ENDROOT
BRANCH   1   7
HETATM    7  C31 MK1 B 902      18.743  16.544   4.732  1.00 36.25     0.312 C 
BRANCH   7   8
HETATM    8  C32 MK1 B 902      19.667  15.456   5.292  1.00 42.75    -0.015 A 
HETATM    9  C36 MK1 B 902      19.083  14.412   5.977  1.00 44.71     0.011 A 
HETATM   10  C35 MK1 B 902      19.918  13.431   6.506  1.00 49.34     0.018 A 
HETATM   11  C34 MK1 B 902      21.302  13.528   6.335  1.00 50.60     0.087 A 
HETATM   12  N5  MK1 B 902      21.971  14.547   5.659  1.00 51.38    -0.375 N 
HETATM   13  C33 MK1 B 902      21.062  15.493   5.157  1.00 47.41     0.096 A 
HETATM   14  H5  MK1 B 902      22.983  14.599   5.544  1.00  0.00     0.164 HD
ENDBRANCH   7   8
ENDBRANCH   1   7
BRANCH   3  15
HETATM   15  C3  MK1 B 902      18.638  18.336   9.353  1.00 28.85     0.242 C 
HETATM   16  O1  MK1 B 902      19.183  19.259   9.946  1.00 29.59    -0.271 OA
HETATM   17  N2  MK1 B 902      18.586  17.111   9.837  1.00 22.29    -0.351 N 
HETATM   18  H2  MK1 B 902      18.164  16.422   9.214  1.00  0.00     0.163 HD
BRANCH  17  19
HETATM   19  C4  MK1 B 902      19.025  16.593  11.093  1.00 23.47     0.022 C 
HETATM   20  C7  MK1 B 902      19.101  15.129  11.129  1.00 22.75     0.037 C 
HETATM   21  C5  MK1 B 902      17.943  16.950  12.129  1.00 27.66     0.037 C 
HETATM   22  C6  MK1 B 902      20.256  17.089  11.491  1.00 21.71     0.037 C 
ENDBRANCH  17  19
ENDBRANCH   3  15
BRANCH   4  23
HETATM   23  C10 MK1 B 902      17.774  21.081   8.086  1.00 20.86     0.149 C 
BRANCH  23  24
HETATM   24  C11 MK1 B 902      16.247  21.148   8.058  1.00 21.68     0.136 C 
BRANCH  24  25
HETATM   25  O2  MK1 B 902      16.113  21.553   9.387  1.00 15.87    -0.394 OA
HETATM   26  H2  MK1 B 902      16.042  20.773   9.926  1.00  0.00     0.210 HD
ENDBRANCH  24  25
BRANCH  24  27
HETATM   27  C12 MK1 B 902      15.441  22.124   7.180  1.00 21.49     0.047 C 
BRANCH  27  28
HETATM   28  C13 MK1 B 902      14.388  21.600   6.193  1.00 26.89     0.084 C 
BRANCH  28  29
HETATM   29  C21 MK1 B 902      12.990  22.107   6.523  1.00 29.35     0.222 C 
HETATM   30  N4  MK1 B 902      12.777  23.397   6.276  1.00 31.19    -0.350 N 
HETATM   31  H4  MK1 B 902      13.576  24.012   6.121  1.00  0.00     0.163 HD
HETATM   32  O3  MK1 B 902      12.103  21.320   6.886  1.00 32.66    -0.273 OA
BRANCH  30  33
HETATM   33  C22 MK1 B 902      11.435  23.950   6.222  1.00 29.22     0.147 C 
HETATM   34  C30 MK1 B 902      11.068  25.094   7.203  1.00 31.86    -0.027 A 
HETATM   35  C29 MK1 B 902      11.390  25.349   8.499  1.00 27.70     0.010 A 
HETATM   36  C25 MK1 B 902      10.143  26.142   6.521  1.00 31.29    -0.047 A 
HETATM   37  C28 MK1 B 902      10.921  26.477   9.159  1.00 29.01     0.001 A 
HETATM   38  C27 MK1 B 902      10.098  27.422   8.528  1.00 28.00     0.001 A 
HETATM   39  C26 MK1 B 902       9.703  27.256   7.196  1.00 32.00     0.008 A 
HETATM   40  C24 MK1 B 902      10.024  25.568   5.131  1.00 32.05     0.073 C 
HETATM   41  C23 MK1 B 902      11.129  24.571   4.869  1.00 28.82     0.149 C 
BRANCH  41  42
HETATM   42  O4  MK1 B 902      12.303  25.145   4.315  1.00 28.32    -0.393 OA
HETATM   43  H4  MK1 B 902      12.881  25.446   5.008  1.00  0.00     0.210 HD
ENDBRANCH  41  42
ENDBRANCH  30  33
ENDBRANCH  28  29
BRANCH  28  44
HETATM   44  C14 MK1 B 902      14.360  20.063   6.132  1.00 28.67     0.052 C 
BRANCH  44  45
HETATM   45  C15 MK1 B 902      14.735  19.540   4.795  1.00 26.89    -0.057 A 
HETATM   46  C16 MK1 B 902      14.819  20.356   3.665  1.00 29.22     0.007 A 
HETATM   47  C17 MK1 B 902      15.138  19.817   2.427  1.00 29.22     0.001 A 
HETATM   48  C18 MK1 B 902      15.370  18.444   2.330  1.00 30.97     0.000 A 
HETATM   49  C19 MK1 B 902      15.293  17.623   3.462  1.00 29.25     0.001 A 
HETATM   50  C20 MK1 B 902      14.973  18.180   4.700  1.00 29.96     0.007 A 
ENDBRANCH  44  45
ENDBRANCH  28  44
ENDBRANCH  27  28
ENDBRANCH  24  27
ENDBRANCH  23  24
ENDBRANCH   4  23
TORSDOF 14
ENDMDL
MODEL 19
REMARK VINA RESULT:      -8.8      4.049     10.878
REMARK  14 active torsions:
REMARK  status: ('A' for Active; 'I' for Inactive)
REMARK    1  A    between atoms: N1_1  and  C31_43 
REMARK    2  A    between atoms: C2_3  and  C3_4 
REMARK       I    between atoms: C3_4  and  N2_6 
REMARK    3  A    between atoms: N2_6  and  C4_8 
REMARK    4  A    between atoms: N3_12  and  C10_15 
REMARK    5  A    between atoms: C10_15  and  C11_16 
REMARK    6  A    between atoms: C11_16  and  O2_17 
REMARK    7  A    between atoms: C11_16  and  C12_19 
REMARK    8  A    between atoms: C12_19  and  C13_20 
REMARK    9  A    between atoms: C13_20  and  C21_28 
REMARK   10  A    between atoms: C13_20  and  C14_21 
REMARK   11  A    between atoms: C14_21  and  C15_22 
REMARK       I    between atoms: C21_28  and  N4_30 
REMARK   12  A    between atoms: N4_30  and  C22_32 
REMARK   13  A    between atoms: C23_33  and  O4_34 
REMARK   14  A    between atoms: C31_43  and  C32_44 
ROOT
HETATM    1  N1  MK1 B 902      19.395  15.555   6.425  1.00 28.25     0.096 N 
HETATM    2  C1  MK1 B 902      18.712  16.175   5.257  1.00 30.30     0.307 C 
HETATM    3  C2  MK1 B 902      18.978  17.613   4.860  1.00 27.27     0.200 C 
HETATM    4  N3  MK1 B 902      18.603  18.351   6.116  1.00 28.91    -0.395 N 
HETATM    5  C8  MK1 B 902      18.994  17.780   7.429  1.00 26.24     0.148 C 
HETATM    6  C9  MK1 B 902      19.011  16.270   7.559  1.00 27.47     0.292 C 
ENDROOT
BRANCH   1   7
HETATM    7  C31 MK1 B 902      19.306  14.096   6.559  1.00 36.25     0.312 C 
BRANCH   7   8
HETATM    8  C32 MK1 B 902      20.461  13.183   6.131  1.00 42.75    -0.015 A 
HETATM    9  C36 MK1 B 902      21.513  13.759   5.450  1.00 44.71     0.011 A 
HETATM   10  C35 MK1 B 902      22.556  12.931   5.042  1.00 49.34     0.018 A 
HETATM   11  C34 MK1 B 902      22.511  11.562   5.324  1.00 50.60     0.087 A 
HETATM   12  N5  MK1 B 902      21.489  10.903   6.005  1.00 51.38    -0.375 N 
HETATM   13  C33 MK1 B 902      20.479  11.804   6.382  1.00 47.41     0.096 A 
HETATM   14  H5  MK1 B 902      21.475   9.902   6.201  1.00  0.00     0.164 HD
ENDBRANCH   7   8
ENDBRANCH   1   7
BRANCH   3  15
HETATM   15  C3  MK1 B 902      18.096  17.953   3.690  1.00 28.85     0.242 C 
HETATM   16  O1  MK1 B 902      18.589  18.277   2.617  1.00 29.59    -0.271 OA
HETATM   17  N2  MK1 B 902      16.793  17.896   3.887  1.00 22.29    -0.351 N 
HETATM   18  H2  MK1 B 902      16.514  17.679   4.844  1.00  0.00     0.163 HD
BRANCH  17  19
HETATM   19  C4  MK1 B 902      15.711  18.090   2.976  1.00 23.47     0.022 C 
HETATM   20  C7  MK1 B 902      15.283  19.488   2.863  1.00 22.75     0.037 C 
HETATM   21  C5  MK1 B 902      14.491  17.359   3.565  1.00 27.66     0.037 C 
HETATM   22  C6  MK1 B 902      15.980  17.628   1.698  1.00 21.71     0.037 C 
ENDBRANCH  17  19
ENDBRANCH   3  15
BRANCH   4  23
HETATM   23  C10 MK1 B 902      18.818  19.784   6.141  1.00 20.86     0.149 C 
BRANCH  23  24
HETATM   24  C11 MK1 B 902      19.062  20.357   7.539  1.00 21.68     0.136 C 
BRANCH  24  25
HETATM   25  O2  MK1 B 902      20.059  21.247   7.138  1.00 15.87    -0.394 OA
HETATM   26  H2  MK1 B 902      19.851  21.546   6.260  1.00  0.00     0.210 HD
ENDBRANCH  24  25
BRANCH  24  27
HETATM   27  C12 MK1 B 902      18.014  21.147   8.344  1.00 21.49     0.047 C 
BRANCH  27  28
HETATM   28  C13 MK1 B 902      16.769  20.446   8.907  1.00 26.89     0.084 C 
BRANCH  28  29
HETATM   29  C21 MK1 B 902      15.483  21.168   8.524  1.00 29.35     0.222 C 
HETATM   30  N4  MK1 B 902      15.430  21.613   7.271  1.00 31.19    -0.350 N 
HETATM   31  H4  MK1 B 902      16.290  21.671   6.727  1.00  0.00     0.163 HD
HETATM   32  O3  MK1 B 902      14.528  21.217   9.313  1.00 32.66    -0.273 OA
BRANCH  30  33
HETATM   33  C22 MK1 B 902      14.176  22.018   6.660  1.00 29.22     0.147 C 
HETATM   34  C30 MK1 B 902      13.579  23.397   7.044  1.00 31.86    -0.027 A 
HETATM   35  C29 MK1 B 902      13.526  24.098   8.207  1.00 27.70     0.010 A 
HETATM   36  C25 MK1 B 902      12.918  24.083   5.814  1.00 31.29    -0.047 A 
HETATM   37  C28 MK1 B 902      12.922  25.347   8.279  1.00 29.01     0.001 A 
HETATM   38  C27 MK1 B 902      12.341  25.961   7.160  1.00 28.00     0.001 A 
HETATM   39  C26 MK1 B 902      12.337  25.325   5.913  1.00 32.00     0.008 A 
HETATM   40  C24 MK1 B 902      13.182  23.065   4.732  1.00 32.05     0.073 C 
HETATM   41  C23 MK1 B 902      14.286  22.120   5.148  1.00 28.82     0.149 C 
BRANCH  41  42
HETATM   42  O4  MK1 B 902      15.586  22.555   4.778  1.00 28.32    -0.393 OA
HETATM   43  H4  MK1 B 902      15.610  23.503   4.713  1.00  0.00     0.210 HD
ENDBRANCH  41  42
ENDBRANCH  30  33
ENDBRANCH  28  29
BRANCH  28  44
HETATM   44  C14 MK1 B 902      16.823  20.304  10.438  1.00 28.67     0.052 C 
BRANCH  44  45
HETATM   45  C15 MK1 B 902      17.616  19.126  10.871  1.00 26.89    -0.057 A 
HETATM   46  C16 MK1 B 902      18.930  19.232  11.331  1.00 29.22     0.007 A 
HETATM   47  C17 MK1 B 902      19.646  18.100  11.691  1.00 29.22     0.001 A 
HETATM   48  C18 MK1 B 902      19.029  16.852  11.583  1.00 30.97     0.000 A 
HETATM   49  C19 MK1 B 902      17.709  16.742  11.130  1.00 29.25     0.001 A 
HETATM   50  C20 MK1 B 902      17.002  17.890  10.773  1.00 29.96     0.007 A 
ENDBRANCH  44  45
ENDBRANCH  28  44
ENDBRANCH  27  28
ENDBRANCH  24  27
ENDBRANCH  23  24
ENDBRANCH   4  23
TORSDOF 14
ENDMDL
MODEL 20
REMARK VINA RESULT:      -8.7      3.723     11.849
REMARK  14 active torsions:
REMARK  status: ('A' for Active; 'I' for Inactive)
REMARK    1  A    between atoms: N1_1  and  C31_43 
REMARK    2  A    between atoms: C2_3  and  C3_4 
REMARK       I    between atoms: C3_4  and  N2_6 
REMARK    3  A    between atoms: N2_6  and  C4_8 
REMARK    4  A    between atoms: N3_12  and  C10_15 
REMARK    5  A    between atoms: C10_15  and  C11_16 
REMARK    6  A    between atoms: C11_16  and  O2_17 
REMARK    7  A    between atoms: C11_16  and  C12_19 
REMARK    8  A    between atoms: C12_19  and  C13_20 
REMARK    9  A    between atoms: C13_20  and  C21_28 
REMARK   10  A    between atoms: C13_20  and  C14_21 
REMARK   11  A    between atoms: C14_21  and  C15_22 
REMARK       I    between atoms: C21_28  and  N4_30 
REMARK   12  A    between atoms: N4_30  and  C22_32 
REMARK   13  A    between atoms: C23_33  and  O4_34 
REMARK   14  A    between atoms: C31_43  and  C32_44 
ROOT
HETATM    1  N1  MK1 B 902      11.649  22.983   3.708  1.00 28.25     0.096 N 
HETATM    2  C1  MK1 B 902      11.264  23.978   4.745  1.00 30.30     0.307 C 
HETATM    3  C2  MK1 B 902       9.836  24.471   4.873  1.00 27.27     0.200 C 
HETATM    4  N3  MK1 B 902       9.588  25.045   3.504  1.00 28.91    -0.395 N 
HETATM    5  C8  MK1 B 902      10.097  24.315   2.316  1.00 26.24     0.148 C 
HETATM    6  C9  MK1 B 902      11.405  23.564   2.464  1.00 27.47     0.292 C 
ENDROOT
BRANCH   1   7
HETATM    7  C31 MK1 B 902      12.966  22.348   3.842  1.00 36.25     0.312 C 
BRANCH   7   8
HETATM    8  C32 MK1 B 902      13.832  22.561   5.089  1.00 42.75    -0.015 A 
HETATM    9  C36 MK1 B 902      13.533  21.816   6.209  1.00 44.71     0.011 A 
HETATM   10  C35 MK1 B 902      14.303  22.019   7.352  1.00 49.34     0.018 A 
HETATM   11  C34 MK1 B 902      15.339  22.958   7.336  1.00 50.60     0.087 A 
HETATM   12  N5  MK1 B 902      15.706  23.750   6.249  1.00 51.38    -0.375 N 
HETATM   13  C33 MK1 B 902      14.884  23.486   5.140  1.00 47.41     0.096 A 
HETATM   14  H5  MK1 B 902      16.466  24.430   6.258  1.00  0.00     0.164 HD
ENDBRANCH   7   8
ENDBRANCH   1   7
BRANCH   3  15
HETATM   15  C3  MK1 B 902       9.788  25.506   5.964  1.00 28.85     0.242 C 
HETATM   16  O1  MK1 B 902      10.099  26.666   5.730  1.00 29.59    -0.271 OA
HETATM   17  N2  MK1 B 902       9.414  25.096   7.160  1.00 22.29    -0.351 N 
HETATM   18  H2  MK1 B 902       9.248  24.092   7.237  1.00  0.00     0.163 HD
BRANCH  17  19
HETATM   19  C4  MK1 B 902       9.205  25.832   8.366  1.00 23.47     0.022 C 
HETATM   20  C7  MK1 B 902      10.436  26.397   8.929  1.00 22.75     0.037 C 
HETATM   21  C5  MK1 B 902       8.719  24.828   9.427  1.00 27.66     0.037 C 
HETATM   22  C6  MK1 B 902       8.293  26.866   8.226  1.00 21.71     0.037 C 
ENDBRANCH  17  19
ENDBRANCH   3  15
BRANCH   4  23
HETATM   23  C10 MK1 B 902       8.257  25.544   3.218  1.00 20.86     0.149 C 
BRANCH  23  24
HETATM   24  C11 MK1 B 902       7.130  24.618   3.679  1.00 21.68     0.136 C 
BRANCH  24  25
HETATM   25  O2  MK1 B 902       6.630  25.497   4.642  1.00 15.87    -0.394 OA
HETATM   26  H2  MK1 B 902       6.243  24.980   5.338  1.00  0.00     0.210 HD
ENDBRANCH  24  25
BRANCH  24  27
HETATM   27  C12 MK1 B 902       5.956  24.175   2.785  1.00 21.49     0.047 C 
BRANCH  27  28
HETATM   28  C13 MK1 B 902       4.614  23.762   3.406  1.00 26.89     0.084 C 
BRANCH  28  29
HETATM   29  C21 MK1 B 902       3.994  24.884   4.230  1.00 29.35     0.222 C 
HETATM   30  N4  MK1 B 902       3.763  26.015   3.569  1.00 31.19    -0.350 N 
HETATM   31  H4  MK1 B 902       4.208  26.163   2.663  1.00  0.00     0.163 HD
HETATM   32  O3  MK1 B 902       3.637  24.684   5.400  1.00 32.66    -0.273 OA
BRANCH  30  33
HETATM   33  C22 MK1 B 902       2.892  27.046   4.106  1.00 29.22     0.147 C 
HETATM   34  C30 MK1 B 902       3.514  28.140   5.013  1.00 31.86    -0.027 A 
HETATM   35  C29 MK1 B 902       4.490  28.121   5.959  1.00 27.70     0.010 A 
HETATM   36  C25 MK1 B 902       2.858  29.525   4.751  1.00 31.29    -0.047 A 
HETATM   37  C28 MK1 B 902       4.870  29.272   6.637  1.00 29.01     0.001 A 
HETATM   38  C27 MK1 B 902       4.280  30.519   6.381  1.00 28.00     0.001 A 
HETATM   39  C26 MK1 B 902       3.263  30.650   5.430  1.00 32.00     0.008 A 
HETATM   40  C24 MK1 B 902       1.874  29.182   3.660  1.00 32.05     0.073 C 
HETATM   41  C23 MK1 B 902       2.236  27.867   3.009  1.00 28.82     0.149 C 
BRANCH  41  42
HETATM   42  O4  MK1 B 902       3.115  27.996   1.900  1.00 28.32    -0.393 OA
HETATM   43  H4  MK1 B 902       3.881  28.502   2.145  1.00  0.00     0.210 HD
ENDBRANCH  41  42
ENDBRANCH  30  33
ENDBRANCH  28  29
BRANCH  28  44
HETATM   44  C14 MK1 B 902       4.742  22.508   4.289  1.00 28.67     0.052 C 
BRANCH  44  45
HETATM   45  C15 MK1 B 902       3.742  21.467   3.945  1.00 26.89    -0.057 A 
HETATM   46  C16 MK1 B 902       3.762  20.189   4.508  1.00 29.22     0.007 A 
HETATM   47  C17 MK1 B 902       2.829  19.235   4.129  1.00 29.22     0.001 A 
HETATM   48  C18 MK1 B 902       1.870  19.575   3.172  1.00 30.97     0.000 A 
HETATM   49  C19 MK1 B 902       1.842  20.857   2.611  1.00 29.25     0.001 A 
HETATM   50  C20 MK1 B 902       2.786  21.806   3.003  1.00 29.96     0.007 A 
ENDBRANCH  44  45
ENDBRANCH  28  44
ENDBRANCH  27  28
ENDBRANCH  24  27
ENDBRANCH  23  24
ENDBRANCH   4  23
TORSDOF 14
ENDMDL
